Using: /programs/synopsys/hspice_vL-2016.03/hspice/linux64/hspice complete_design.sp
 ****** HSPICE -- L-2016.03-1 linux64 (Mar 27 2016) ******                      
  Copyright (c) 1986 - 2016 by Synopsys, Inc. All Rights Reserved.              
  This software and the associated documentation are proprietary
  to Synopsys, Inc. This software may only be used in accordance
  with the terms and conditions of a written license agreement with
  Synopsys, Inc. All other use, reproduction, or distribution of
  this software is strictly prohibited.
  Input File: complete_design.sp                                                
  Command line options: /programs/synopsys/hspice_vL-2016.03/hspice/linux64/hspice complete_design.sp
 lic:  
 lic: FLEXlm: v11.2.1 
 lic: USER:   jmballe              HOSTNAME: rivendell.ecen.okstate.edu 
 lic: HOSTID: "2c44fd862b18"       PID:      59930 
 lic: Using FLEXlm license file: 
 lic: 27020@avatar.ecen.okstate.edu 
 lic: Checkout 1 hspice 
 lic: License/Maintenance for hspice will expire on 27-jan-2017/2015.06 
 lic: 1(in_use)/50(total) FLOATING license(s) on SERVER 27020@avatar.ecen.okstate.edu 
 lic:   
  **warning** (complete_design.sp:3473) Variable va does not exists in the netlist for DC   analysis. Please specify the variable which is present in the netlist. va assumed to be new variable for DC   analysis however results may not be desired.
1****** HSPICE -- L-2016.03-1 linux64 (Mar 27 2016) ******                      
 ******  
 *********************************************************

 ****** mos   model parameters tnom=  25.000 temp=  25.000 ******
 ***************************************************************************
 ***        model parameters  model name:   0:cmosntt  model type:nmos   ***
 ***************************************************************************

   *** general parameters ***
    deriv=   0.           

   ***  level 49  model parameters  ***

      hspver=    2006.03               level=         49         
     version=        3.1            paramchk=          0         
      apwarn=          1                lite=          0         
      vgslim=          0             binUnit=          1         
      capMod=          2               xpart=        0.5         
      mobMod=          1              nqsMod=          0         
      stiMod=          0                 elm=          5         
    sfvtflag=          0                 tox=   1.39e-08 meter   
          xj=    1.5e-07 meter       binflag=          0         
        lmin=          0 meter          lmax=          0 meter   
        wmin=          0 meter          wmax=          0 meter   
        lref=          0 meter          wref=          0 meter   
        lint=3.59761e-08 meter          wint=2.47235e-07 meter   
       lmult=          1               wmult=          1         
          ll=          0                 lln=          1         
          lw=          0                 lwn=          1         
         lwl=          0                  wl=          0         
         wln=          1                  ww=          0         
         wwn=          1                 wwl=          0         
         dwg=-1.28716e-08 m/V             dwb=5.30659e-08 m/V^1/2 
          xl=          0                  xw=          0         
          a0=   0.610354                 ags=   0.119461 V^-1    
          b0=2.67476e-06 meter            b1=      5e-06 meter   
        keta=-0.00264068 V^-1           voff=          0 V       
       ngate=          0 cm^-3           vbx=          0 V       
         vbm=         -3 V                xt=   1.55e-07 meter   
        vth0=   0.669606 V               nch=    1.7e+17 cm^-3   
        nsub=      6e+16 cm^-3           nlx=      1e-09 meter   
      gamma1=          0 V^-1/2       gamma2=          0 V^-1/2  
          k1=   0.835161 V^1/2            k2= -0.0839158         
          k3=    23.1024                 k3b=   -7.68411 V^-1    
          w0=      1e-08 meter          dvt0=    2.90472         
        dvt1=   0.430269                dvt2=  -0.134857 V^-1    
       dvt0w=          0 meter^-1      dvt1w=          0 meter^-1
       dvt2w=          0 V^-1           dsub=   0.254346         
        eta0=  0.0246738                etab=-0.00140612 V^-1    
          u0=     458.44 cm^2/V/sec         ua=      1e-13 m/V     
          ub= 1.4855e-18 (m/V)^2          uc=1.62994e-11 V^-1    
        vsat=     164399 m/sec            a1=8.21959e-05 v^-1    
          a2=   0.356479               delta=       0.01 V       
        rdsw=    1387.11 ohm-um         prwg=  0.0299916 V^-1    
        prwb=  0.0363981 V^-1/2           wr=          1         
        pclm=    2.59452             pdiblc1=  -0.428234         
     pdiblc2= 0.00231174             pdiblcb= -0.0272914 V^-1    
      pscbe1=5.59862e+08 V/m          pscbe2=5.46165e-05 V/m     
       drout=   0.728357                pvag=          0         
     nfactor=   0.836558                cdsc=    0.00024 f/m^2   
       cdscb=          0 f/V/m^2       cdscd=          0 f/V/m^2 
         cit=          0 f/m^2        alpha0=          0 m/V     
       beta0=         30 V               dlc=3.59761e-08 meter   
         dwc=2.47235e-07 meter           clc=      1e-07 meter   
         cle=        0.6                cgso=      2e-10 f/m     
        cgdo=      2e-10 f/m            cgbo=      1e-09 f/m     
        cgsl=          0 f/m            cgdl=          0 f/m     
      ckappa=        0.6                  cf=          0 f/m     
        tnom=     300.15 K               kt1=    -0.2501 V       
        kt1l=  -2.58e-09                 kt2=          0         
         ute=         -1                 ua1=    5.4e-10 m/V     
         ub1=   -4.8e-19 (m/V)^2         uc1=   -7.5e-11 m/V^2   
          at=     100000 m/s             prt=      8.621         
         using Berkeley noise model       noiMod=          1         
        noia=      1e+20                noib=      50000         
        noic=   -1.4e-12                  em=    4.1e+07         
          ef=          1                  af=          1         
          kf=          0              gdsnoi=-1.23457e-29         
         using Hspice diodes            using ACM 
         acm=         0                 hdif=         0 meter    
        ldif=         0 meter             js=         0 amp/m^2  
         jsw=         0 amp/m            xti=         0          
           n=         1                   cj=0.000419777 f/m^2    
          mj=  0.451504                   pb=      0.99 V        
        cjsw=3.24272e-10 f/m             mjsw=  0.115399          
         php=      0.99 V               pbsw (not used)           
      cjgate=3.24272e-10 f/m            cjswg (not used)           
       mjswg (not used)                 pbswg (not used)           
       lketa= 0.00117319               wketa= -0.0248758         
       pvth0=  0.0585501                 pk2= -0.0299638         
       prdsw=    133.286         
 ***************************************************************************
 ***        model parameters  model name:   0:cmosptt  model type:pmos   ***
 ***************************************************************************

   *** general parameters ***
    deriv=   0.           

   ***  level 49  model parameters  ***

      hspver=    2006.03               level=         49         
     version=        3.1            paramchk=          0         
      apwarn=          1                lite=          0         
      vgslim=          0             binUnit=          1         
      capMod=          2               xpart=        0.5         
      mobMod=          1              nqsMod=          0         
      stiMod=          0                 elm=          5         
    sfvtflag=          0                 tox=   1.39e-08 meter   
          xj=    1.5e-07 meter       binflag=          0         
        lmin=          0 meter          lmax=          0 meter   
        wmin=          0 meter          wmax=          0 meter   
        lref=          0 meter          wref=          0 meter   
        lint=5.52881e-08 meter          wint=2.83804e-07 meter   
       lmult=          1               wmult=          1         
          ll=          0                 lln=          1         
          lw=          0                 lwn=          1         
         lwl=          0                  wl=          0         
         wln=          1                  ww=          0         
         wwn=          1                 wwl=          0         
         dwg=-1.60638e-08 m/V             dwb=2.26639e-08 m/V^1/2 
          xl=          0                  xw=          0         
          a0=   0.843002                 ags=   0.132861 V^-1    
          b0=7.11791e-07 meter            b1=      5e-06 meter   
        keta=-0.00367486 V^-1           voff= -0.0558512 V       
       ngate=          0 cm^-3           vbx=          0 V       
         vbm=         -3 V                xt=   1.55e-07 meter   
        vth0=  -0.921435 V               nch=    1.7e+17 cm^-3   
        nsub=      6e+16 cm^-3           nlx=  2.594e-08 meter   
      gamma1=          0 V^-1/2       gamma2=          0 V^-1/2  
          k1=   0.555372 V^1/2            k2= 0.00876333         
          k3=    6.30636                 k3b=  -0.648736 V^-1    
          w0= 1.2807e-08 meter          dvt0=    2.51312         
        dvt1=   0.548054                dvt2=  -0.118649 V^-1    
       dvt0w=          0 meter^-1      dvt1w=          0 meter^-1
       dvt2w=          0 V^-1           dsub=          1         
        eta0=   0.325188                etab= -0.0580325 V^-1    
          u0=    212.017 cm^2/V/sec         ua=2.80712e-09 m/V     
          ub=      1e-21 (m/V)^2          uc=-5.82128e-11 V^-1    
        vsat=     171360 m/sec            a1=4.77502e-05 v^-1    
          a2=        0.3               delta=       0.01 V       
        rdsw=    2837.21 ohm-um         prwg= -0.0363908 V^-1    
        prwb=-1.01672e-05 V^-1/2           wr=          1         
        pclm=    2.24096             pdiblc1=  0.0411445         
     pdiblc2= 0.00335557             pdiblcb= -0.0551797 V^-1    
      pscbe1=6.44809e+09 V/m          pscbe2=6.30085e-10 V/m     
       drout=    0.20369                pvag=          0         
     nfactor=   0.934249                cdsc=    0.00024 f/m^2   
       cdscb=          0 f/V/m^2       cdscd=          0 f/V/m^2 
         cit=          0 f/m^2        alpha0=          0 m/V     
       beta0=         30 V               dlc=5.52881e-08 meter   
         dwc=2.83804e-07 meter           clc=      1e-07 meter   
         cle=        0.6                cgso=    2.9e-10 f/m     
        cgdo=    2.9e-10 f/m            cgbo=      1e-09 f/m     
        cgsl=          0 f/m            cgdl=          0 f/m     
      ckappa=        0.6                  cf=          0 f/m     
        tnom=     300.15 K               kt1=    -0.2942 V       
        kt1l=   1.68e-09                 kt2=          0         
         ute=         -1                 ua1=    4.5e-09 m/V     
         ub1=   -6.3e-18 (m/V)^2         uc1=     -1e-10 m/V^2   
          at=       1000 m/s             prt=     59.494         
         using Berkeley noise model       noiMod=          1         
        noia=    9.9e+18                noib=       2400         
        noic=    1.4e-12                  em=    4.1e+07         
          ef=          1                  af=          1         
          kf=          0              gdsnoi=-1.23457e-29         
         using Hspice diodes            using ACM 
         acm=         0                 hdif=         0 meter    
        ldif=         0 meter             js=         0 amp/m^2  
         jsw=         0 amp/m            xti=         0          
           n=         1                   cj=0.000723553 f/m^2    
          mj=  0.495529                   pb=  0.952735 V        
        cjsw=2.69279e-10 f/m             mjsw=  0.295839          
         php=  0.952735 V               pbsw (not used)           
      cjgate=2.69279e-10 f/m            cjswg (not used)           
       mjswg (not used)                 pbswg (not used)           
       lketa= -0.0042059               wketa= 0.00529216         
       pvth0= 0.00598016                 pk2= 0.00373981         
       prdsw=    14.8598         
  **info** (complete_design.sp:21) DC voltage reset to initial transient source value in source 0:valu_as. new dc=0.5000D+01
  **warning** (v_$valu_as:0) pulse rise time is  < or = zero, reset to tstep
  **warning** (v_$valu_as:0) pulse fall time is  < or = zero, reset to tstep
  **warning** (v_$valu_ds:0) pulse rise time is  < or = zero, reset to tstep
  **warning** (v_$valu_ds:0) pulse fall time is  < or = zero, reset to tstep
  **warning** (v_$valu_pc:0) pulse rise time is  < or = zero, reset to tstep
  **warning** (v_$valu_pc:0) pulse fall time is  < or = zero, reset to tstep
  **warning** (v_$vreg_as:0) pulse rise time is  < or = zero, reset to tstep
  **warning** (v_$vreg_as:0) pulse fall time is  < or = zero, reset to tstep
  **warning** (v_$vreg_ds:0) pulse rise time is  < or = zero, reset to tstep
  **warning** (v_$vreg_ds:0) pulse fall time is  < or = zero, reset to tstep
  **warning** (v_$vreg_pc:0) pulse rise time is  < or = zero, reset to tstep
  **warning** (v_$vreg_pc:0) pulse fall time is  < or = zero, reset to tstep
  **warning** (complete_design.sp:2899) Both nodes of element c134 are connected together; Line ignored.
 

 Warning: Ps = 0 is less than Weff = 7.0553e-07 in BSIM3 model 0:cmosntt element m1003 with W = 1.2e-06, L = 6e-07

  **warning** (complete_design.sp:3491) Unable to find referenced node out; Output variable ignored. Specify a valid node.
  
      
  **warning** (v_$valu_as:0) pulse rise time is  < or = zero, reset to tstep
  **warning** (v_$valu_as:0) pulse fall time is  < or = zero, reset to tstep
  **warning** (v_$valu_ds:0) pulse rise time is  < or = zero, reset to tstep
  **warning** (v_$valu_ds:0) pulse fall time is  < or = zero, reset to tstep
  **warning** (v_$valu_pc:0) pulse rise time is  < or = zero, reset to tstep
  **warning** (v_$valu_pc:0) pulse fall time is  < or = zero, reset to tstep
  **warning** (v_$vreg_as:0) pulse rise time is  < or = zero, reset to tstep
  **warning** (v_$vreg_as:0) pulse fall time is  < or = zero, reset to tstep
  **warning** (v_$vreg_ds:0) pulse rise time is  < or = zero, reset to tstep
  **warning** (v_$vreg_ds:0) pulse fall time is  < or = zero, reset to tstep
  **warning** (v_$vreg_pc:0) pulse rise time is  < or = zero, reset to tstep
  **warning** (v_$vreg_pc:0) pulse fall time is  < or = zero, reset to tstep
 **info** set option symb=1 internally to help for convergence.
 *****************************************************************
 ******  option summary
 ******
 runlvl  = 3         bypass  = 2.0000    
  **warning** (v_$valu_as:0) pulse rise time is  < or = zero, reset to tstep
  **warning** (v_$valu_as:0) pulse fall time is  < or = zero, reset to tstep
  **warning** (v_$valu_ds:0) pulse rise time is  < or = zero, reset to tstep
  **warning** (v_$valu_ds:0) pulse fall time is  < or = zero, reset to tstep
  **warning** (v_$valu_pc:0) pulse rise time is  < or = zero, reset to tstep
  **warning** (v_$valu_pc:0) pulse fall time is  < or = zero, reset to tstep
  **warning** (v_$vreg_as:0) pulse rise time is  < or = zero, reset to tstep
  **warning** (v_$vreg_as:0) pulse fall time is  < or = zero, reset to tstep
  **warning** (v_$vreg_ds:0) pulse rise time is  < or = zero, reset to tstep
  **warning** (v_$vreg_ds:0) pulse fall time is  < or = zero, reset to tstep
  **warning** (v_$vreg_pc:0) pulse rise time is  < or = zero, reset to tstep
  **warning** (v_$vreg_pc:0) pulse fall time is  < or = zero, reset to tstep
  **warning** (v_$valu_as:0) pulse rise time is  < or = zero, reset to tstep
  **warning** (v_$valu_as:0) pulse fall time is  < or = zero, reset to tstep
  **warning** (v_$valu_ds:0) pulse rise time is  < or = zero, reset to tstep
  **warning** (v_$valu_ds:0) pulse fall time is  < or = zero, reset to tstep
  **warning** (v_$valu_pc:0) pulse rise time is  < or = zero, reset to tstep
  **warning** (v_$valu_pc:0) pulse fall time is  < or = zero, reset to tstep
  **warning** (v_$vreg_as:0) pulse rise time is  < or = zero, reset to tstep
  **warning** (v_$vreg_as:0) pulse fall time is  < or = zero, reset to tstep
  **warning** (v_$vreg_ds:0) pulse rise time is  < or = zero, reset to tstep
  **warning** (v_$vreg_ds:0) pulse fall time is  < or = zero, reset to tstep
  **warning** (v_$vreg_pc:0) pulse rise time is  < or = zero, reset to tstep
  **warning** (v_$vreg_pc:0) pulse fall time is  < or = zero, reset to tstep
  **warning** (v_$valu_as:0) pulse rise time is  < or = zero, reset to tstep
  **warning** (v_$valu_as:0) pulse fall time is  < or = zero, reset to tstep
  **warning** (v_$valu_ds:0) pulse rise time is  < or = zero, reset to tstep
  **warning** (v_$valu_ds:0) pulse fall time is  < or = zero, reset to tstep
  **warning** (v_$valu_pc:0) pulse rise time is  < or = zero, reset to tstep
  **warning** (v_$valu_pc:0) pulse fall time is  < or = zero, reset to tstep
  **warning** (v_$vreg_as:0) pulse rise time is  < or = zero, reset to tstep
  **warning** (v_$vreg_as:0) pulse fall time is  < or = zero, reset to tstep
  **warning** (v_$vreg_ds:0) pulse rise time is  < or = zero, reset to tstep
  **warning** (v_$vreg_ds:0) pulse fall time is  < or = zero, reset to tstep
  **warning** (v_$vreg_pc:0) pulse rise time is  < or = zero, reset to tstep
  **warning** (v_$vreg_pc:0) pulse fall time is  < or = zero, reset to tstep
  **warning** (v_$valu_as:0) pulse rise time is  < or = zero, reset to tstep
  **warning** (v_$valu_as:0) pulse fall time is  < or = zero, reset to tstep
  **warning** (v_$valu_ds:0) pulse rise time is  < or = zero, reset to tstep
  **warning** (v_$valu_ds:0) pulse fall time is  < or = zero, reset to tstep
  **warning** (v_$valu_pc:0) pulse rise time is  < or = zero, reset to tstep
  **warning** (v_$valu_pc:0) pulse fall time is  < or = zero, reset to tstep
  **warning** (v_$vreg_as:0) pulse rise time is  < or = zero, reset to tstep
  **warning** (v_$vreg_as:0) pulse fall time is  < or = zero, reset to tstep
  **warning** (v_$vreg_ds:0) pulse rise time is  < or = zero, reset to tstep
  **warning** (v_$vreg_ds:0) pulse fall time is  < or = zero, reset to tstep
  **warning** (v_$vreg_pc:0) pulse rise time is  < or = zero, reset to tstep
  **warning** (v_$vreg_pc:0) pulse fall time is  < or = zero, reset to tstep
  **warning** (v_$valu_as:0) pulse rise time is  < or = zero, reset to tstep
  **warning** (v_$valu_as:0) pulse fall time is  < or = zero, reset to tstep
  **warning** (v_$valu_ds:0) pulse rise time is  < or = zero, reset to tstep
  **warning** (v_$valu_ds:0) pulse fall time is  < or = zero, reset to tstep
  **warning** (v_$valu_pc:0) pulse rise time is  < or = zero, reset to tstep
  **warning** (v_$valu_pc:0) pulse fall time is  < or = zero, reset to tstep
  **warning** (v_$vreg_as:0) pulse rise time is  < or = zero, reset to tstep
  **warning** (v_$vreg_as:0) pulse fall time is  < or = zero, reset to tstep
  **warning** (v_$vreg_ds:0) pulse rise time is  < or = zero, reset to tstep
  **warning** (v_$vreg_ds:0) pulse fall time is  < or = zero, reset to tstep
  **warning** (v_$vreg_pc:0) pulse rise time is  < or = zero, reset to tstep
  **warning** (v_$vreg_pc:0) pulse fall time is  < or = zero, reset to tstep
  **warning** (v_$valu_as:0) pulse rise time is  < or = zero, reset to tstep
  **warning** (v_$valu_as:0) pulse fall time is  < or = zero, reset to tstep
  **warning** (v_$valu_ds:0) pulse rise time is  < or = zero, reset to tstep
  **warning** (v_$valu_ds:0) pulse fall time is  < or = zero, reset to tstep
  **warning** (v_$valu_pc:0) pulse rise time is  < or = zero, reset to tstep
  **warning** (v_$valu_pc:0) pulse fall time is  < or = zero, reset to tstep
  **warning** (v_$vreg_as:0) pulse rise time is  < or = zero, reset to tstep
  **warning** (v_$vreg_as:0) pulse fall time is  < or = zero, reset to tstep
  **warning** (v_$vreg_ds:0) pulse rise time is  < or = zero, reset to tstep
  **warning** (v_$vreg_ds:0) pulse fall time is  < or = zero, reset to tstep
  **warning** (v_$vreg_pc:0) pulse rise time is  < or = zero, reset to tstep
  **warning** (v_$vreg_pc:0) pulse fall time is  < or = zero, reset to tstep
  **warning** (v_$valu_as:0) pulse rise time is  < or = zero, reset to tstep
  **warning** (v_$valu_as:0) pulse fall time is  < or = zero, reset to tstep
  **warning** (v_$valu_ds:0) pulse rise time is  < or = zero, reset to tstep
  **warning** (v_$valu_ds:0) pulse fall time is  < or = zero, reset to tstep
  **warning** (v_$valu_pc:0) pulse rise time is  < or = zero, reset to tstep
  **warning** (v_$valu_pc:0) pulse fall time is  < or = zero, reset to tstep
  **warning** (v_$vreg_as:0) pulse rise time is  < or = zero, reset to tstep
  **warning** (v_$vreg_as:0) pulse fall time is  < or = zero, reset to tstep
  **warning** (v_$vreg_ds:0) pulse rise time is  < or = zero, reset to tstep
  **warning** (v_$vreg_ds:0) pulse fall time is  < or = zero, reset to tstep
  **warning** (v_$vreg_pc:0) pulse rise time is  < or = zero, reset to tstep
  **warning** (v_$vreg_pc:0) pulse fall time is  < or = zero, reset to tstep
  **warning** (v_$valu_as:0) pulse rise time is  < or = zero, reset to tstep
  **warning** (v_$valu_as:0) pulse fall time is  < or = zero, reset to tstep
  **warning** (v_$valu_ds:0) pulse rise time is  < or = zero, reset to tstep
  **warning** (v_$valu_ds:0) pulse fall time is  < or = zero, reset to tstep
  **warning** (v_$valu_pc:0) pulse rise time is  < or = zero, reset to tstep
  **warning** (v_$valu_pc:0) pulse fall time is  < or = zero, reset to tstep
  **warning** (v_$vreg_as:0) pulse rise time is  < or = zero, reset to tstep
  **warning** (v_$vreg_as:0) pulse fall time is  < or = zero, reset to tstep
  **warning** (v_$vreg_ds:0) pulse rise time is  < or = zero, reset to tstep
  **warning** (v_$vreg_ds:0) pulse fall time is  < or = zero, reset to tstep
  **warning** (v_$vreg_pc:0) pulse rise time is  < or = zero, reset to tstep
  **warning** (v_$vreg_pc:0) pulse fall time is  < or = zero, reset to tstep
  **warning** (v_$valu_as:0) pulse rise time is  < or = zero, reset to tstep
  **warning** (v_$valu_as:0) pulse fall time is  < or = zero, reset to tstep
  **warning** (v_$valu_ds:0) pulse rise time is  < or = zero, reset to tstep
  **warning** (v_$valu_ds:0) pulse fall time is  < or = zero, reset to tstep
  **warning** (v_$valu_pc:0) pulse rise time is  < or = zero, reset to tstep
  **warning** (v_$valu_pc:0) pulse fall time is  < or = zero, reset to tstep
  **warning** (v_$vreg_as:0) pulse rise time is  < or = zero, reset to tstep
  **warning** (v_$vreg_as:0) pulse fall time is  < or = zero, reset to tstep
  **warning** (v_$vreg_ds:0) pulse rise time is  < or = zero, reset to tstep
  **warning** (v_$vreg_ds:0) pulse fall time is  < or = zero, reset to tstep
  **warning** (v_$vreg_pc:0) pulse rise time is  < or = zero, reset to tstep
  **warning** (v_$vreg_pc:0) pulse fall time is  < or = zero, reset to tstep
  **warning** (v_$valu_as:0) pulse rise time is  < or = zero, reset to tstep
  **warning** (v_$valu_as:0) pulse fall time is  < or = zero, reset to tstep
  **warning** (v_$valu_ds:0) pulse rise time is  < or = zero, reset to tstep
  **warning** (v_$valu_ds:0) pulse fall time is  < or = zero, reset to tstep
  **warning** (v_$valu_pc:0) pulse rise time is  < or = zero, reset to tstep
  **warning** (v_$valu_pc:0) pulse fall time is  < or = zero, reset to tstep
  **warning** (v_$vreg_as:0) pulse rise time is  < or = zero, reset to tstep
  **warning** (v_$vreg_as:0) pulse fall time is  < or = zero, reset to tstep
  **warning** (v_$vreg_ds:0) pulse rise time is  < or = zero, reset to tstep
  **warning** (v_$vreg_ds:0) pulse fall time is  < or = zero, reset to tstep
  **warning** (v_$vreg_pc:0) pulse rise time is  < or = zero, reset to tstep
  **warning** (v_$vreg_pc:0) pulse fall time is  < or = zero, reset to tstep
  **warning** (v_$valu_as:0) pulse rise time is  < or = zero, reset to tstep
  **warning** (v_$valu_as:0) pulse fall time is  < or = zero, reset to tstep
  **warning** (v_$valu_ds:0) pulse rise time is  < or = zero, reset to tstep
  **warning** (v_$valu_ds:0) pulse fall time is  < or = zero, reset to tstep
  **warning** (v_$valu_pc:0) pulse rise time is  < or = zero, reset to tstep
  **warning** (v_$valu_pc:0) pulse fall time is  < or = zero, reset to tstep
  **warning** (v_$vreg_as:0) pulse rise time is  < or = zero, reset to tstep
  **warning** (v_$vreg_as:0) pulse fall time is  < or = zero, reset to tstep
  **warning** (v_$vreg_ds:0) pulse rise time is  < or = zero, reset to tstep
  **warning** (v_$vreg_ds:0) pulse fall time is  < or = zero, reset to tstep
  **warning** (v_$vreg_pc:0) pulse rise time is  < or = zero, reset to tstep
  **warning** (v_$vreg_pc:0) pulse fall time is  < or = zero, reset to tstep
  **warning** (v_$valu_as:0) pulse rise time is  < or = zero, reset to tstep
  **warning** (v_$valu_as:0) pulse fall time is  < or = zero, reset to tstep
  **warning** (v_$valu_ds:0) pulse rise time is  < or = zero, reset to tstep
  **warning** (v_$valu_ds:0) pulse fall time is  < or = zero, reset to tstep
  **warning** (v_$valu_pc:0) pulse rise time is  < or = zero, reset to tstep
  **warning** (v_$valu_pc:0) pulse fall time is  < or = zero, reset to tstep
  **warning** (v_$vreg_as:0) pulse rise time is  < or = zero, reset to tstep
  **warning** (v_$vreg_as:0) pulse fall time is  < or = zero, reset to tstep
  **warning** (v_$vreg_ds:0) pulse rise time is  < or = zero, reset to tstep
  **warning** (v_$vreg_ds:0) pulse fall time is  < or = zero, reset to tstep
  **warning** (v_$vreg_pc:0) pulse rise time is  < or = zero, reset to tstep
  **warning** (v_$vreg_pc:0) pulse fall time is  < or = zero, reset to tstep
  **warning** (v_$valu_as:0) pulse rise time is  < or = zero, reset to tstep
  **warning** (v_$valu_as:0) pulse fall time is  < or = zero, reset to tstep
  **warning** (v_$valu_ds:0) pulse rise time is  < or = zero, reset to tstep
  **warning** (v_$valu_ds:0) pulse fall time is  < or = zero, reset to tstep
  **warning** (v_$valu_pc:0) pulse rise time is  < or = zero, reset to tstep
  **warning** (v_$valu_pc:0) pulse fall time is  < or = zero, reset to tstep
  **warning** (v_$vreg_as:0) pulse rise time is  < or = zero, reset to tstep
  **warning** (v_$vreg_as:0) pulse fall time is  < or = zero, reset to tstep
  **warning** (v_$vreg_ds:0) pulse rise time is  < or = zero, reset to tstep
  **warning** (v_$vreg_ds:0) pulse fall time is  < or = zero, reset to tstep
  **warning** (v_$vreg_pc:0) pulse rise time is  < or = zero, reset to tstep
  **warning** (v_$vreg_pc:0) pulse fall time is  < or = zero, reset to tstep
  **warning** (v_$valu_as:0) pulse rise time is  < or = zero, reset to tstep
  **warning** (v_$valu_as:0) pulse fall time is  < or = zero, reset to tstep
  **warning** (v_$valu_ds:0) pulse rise time is  < or = zero, reset to tstep
  **warning** (v_$valu_ds:0) pulse fall time is  < or = zero, reset to tstep
  **warning** (v_$valu_pc:0) pulse rise time is  < or = zero, reset to tstep
  **warning** (v_$valu_pc:0) pulse fall time is  < or = zero, reset to tstep
  **warning** (v_$vreg_as:0) pulse rise time is  < or = zero, reset to tstep
  **warning** (v_$vreg_as:0) pulse fall time is  < or = zero, reset to tstep
  **warning** (v_$vreg_ds:0) pulse rise time is  < or = zero, reset to tstep
  **warning** (v_$vreg_ds:0) pulse fall time is  < or = zero, reset to tstep
  **warning** (v_$vreg_pc:0) pulse rise time is  < or = zero, reset to tstep
  **warning** (v_$vreg_pc:0) pulse fall time is  < or = zero, reset to tstep
  **warning** (v_$valu_as:0) pulse rise time is  < or = zero, reset to tstep
  **warning** (v_$valu_as:0) pulse fall time is  < or = zero, reset to tstep
  **warning** (v_$valu_ds:0) pulse rise time is  < or = zero, reset to tstep
  **warning** (v_$valu_ds:0) pulse fall time is  < or = zero, reset to tstep
  **warning** (v_$valu_pc:0) pulse rise time is  < or = zero, reset to tstep
  **warning** (v_$valu_pc:0) pulse fall time is  < or = zero, reset to tstep
  **warning** (v_$vreg_as:0) pulse rise time is  < or = zero, reset to tstep
  **warning** (v_$vreg_as:0) pulse fall time is  < or = zero, reset to tstep
  **warning** (v_$vreg_ds:0) pulse rise time is  < or = zero, reset to tstep
  **warning** (v_$vreg_ds:0) pulse fall time is  < or = zero, reset to tstep
  **warning** (v_$vreg_pc:0) pulse rise time is  < or = zero, reset to tstep
  **warning** (v_$vreg_pc:0) pulse fall time is  < or = zero, reset to tstep
  **warning** (v_$valu_as:0) pulse rise time is  < or = zero, reset to tstep
  **warning** (v_$valu_as:0) pulse fall time is  < or = zero, reset to tstep
  **warning** (v_$valu_ds:0) pulse rise time is  < or = zero, reset to tstep
  **warning** (v_$valu_ds:0) pulse fall time is  < or = zero, reset to tstep
  **warning** (v_$valu_pc:0) pulse rise time is  < or = zero, reset to tstep
  **warning** (v_$valu_pc:0) pulse fall time is  < or = zero, reset to tstep
  **warning** (v_$vreg_as:0) pulse rise time is  < or = zero, reset to tstep
  **warning** (v_$vreg_as:0) pulse fall time is  < or = zero, reset to tstep
  **warning** (v_$vreg_ds:0) pulse rise time is  < or = zero, reset to tstep
  **warning** (v_$vreg_ds:0) pulse fall time is  < or = zero, reset to tstep
  **warning** (v_$vreg_pc:0) pulse rise time is  < or = zero, reset to tstep
  **warning** (v_$vreg_pc:0) pulse fall time is  < or = zero, reset to tstep
  **warning** (v_$valu_as:0) pulse rise time is  < or = zero, reset to tstep
  **warning** (v_$valu_as:0) pulse fall time is  < or = zero, reset to tstep
  **warning** (v_$valu_ds:0) pulse rise time is  < or = zero, reset to tstep
  **warning** (v_$valu_ds:0) pulse fall time is  < or = zero, reset to tstep
  **warning** (v_$valu_pc:0) pulse rise time is  < or = zero, reset to tstep
  **warning** (v_$valu_pc:0) pulse fall time is  < or = zero, reset to tstep
  **warning** (v_$vreg_as:0) pulse rise time is  < or = zero, reset to tstep
  **warning** (v_$vreg_as:0) pulse fall time is  < or = zero, reset to tstep
  **warning** (v_$vreg_ds:0) pulse rise time is  < or = zero, reset to tstep
  **warning** (v_$vreg_ds:0) pulse fall time is  < or = zero, reset to tstep
  **warning** (v_$vreg_pc:0) pulse rise time is  < or = zero, reset to tstep
  **warning** (v_$vreg_pc:0) pulse fall time is  < or = zero, reset to tstep
  **warning** (v_$valu_as:0) pulse rise time is  < or = zero, reset to tstep
  **warning** (v_$valu_as:0) pulse fall time is  < or = zero, reset to tstep
  **warning** (v_$valu_ds:0) pulse rise time is  < or = zero, reset to tstep
  **warning** (v_$valu_ds:0) pulse fall time is  < or = zero, reset to tstep
  **warning** (v_$valu_pc:0) pulse rise time is  < or = zero, reset to tstep
  **warning** (v_$valu_pc:0) pulse fall time is  < or = zero, reset to tstep
  **warning** (v_$vreg_as:0) pulse rise time is  < or = zero, reset to tstep
  **warning** (v_$vreg_as:0) pulse fall time is  < or = zero, reset to tstep
  **warning** (v_$vreg_ds:0) pulse rise time is  < or = zero, reset to tstep
  **warning** (v_$vreg_ds:0) pulse fall time is  < or = zero, reset to tstep
  **warning** (v_$vreg_pc:0) pulse rise time is  < or = zero, reset to tstep
  **warning** (v_$vreg_pc:0) pulse fall time is  < or = zero, reset to tstep
  **warning** (v_$valu_as:0) pulse rise time is  < or = zero, reset to tstep
  **warning** (v_$valu_as:0) pulse fall time is  < or = zero, reset to tstep
  **warning** (v_$valu_ds:0) pulse rise time is  < or = zero, reset to tstep
  **warning** (v_$valu_ds:0) pulse fall time is  < or = zero, reset to tstep
  **warning** (v_$valu_pc:0) pulse rise time is  < or = zero, reset to tstep
  **warning** (v_$valu_pc:0) pulse fall time is  < or = zero, reset to tstep
  **warning** (v_$vreg_as:0) pulse rise time is  < or = zero, reset to tstep
  **warning** (v_$vreg_as:0) pulse fall time is  < or = zero, reset to tstep
  **warning** (v_$vreg_ds:0) pulse rise time is  < or = zero, reset to tstep
  **warning** (v_$vreg_ds:0) pulse fall time is  < or = zero, reset to tstep
  **warning** (v_$vreg_pc:0) pulse rise time is  < or = zero, reset to tstep
  **warning** (v_$vreg_pc:0) pulse fall time is  < or = zero, reset to tstep
  **warning** (v_$valu_as:0) pulse rise time is  < or = zero, reset to tstep
  **warning** (v_$valu_as:0) pulse fall time is  < or = zero, reset to tstep
  **warning** (v_$valu_ds:0) pulse rise time is  < or = zero, reset to tstep
  **warning** (v_$valu_ds:0) pulse fall time is  < or = zero, reset to tstep
  **warning** (v_$valu_pc:0) pulse rise time is  < or = zero, reset to tstep
  **warning** (v_$valu_pc:0) pulse fall time is  < or = zero, reset to tstep
  **warning** (v_$vreg_as:0) pulse rise time is  < or = zero, reset to tstep
  **warning** (v_$vreg_as:0) pulse fall time is  < or = zero, reset to tstep
  **warning** (v_$vreg_ds:0) pulse rise time is  < or = zero, reset to tstep
  **warning** (v_$vreg_ds:0) pulse fall time is  < or = zero, reset to tstep
  **warning** (v_$vreg_pc:0) pulse rise time is  < or = zero, reset to tstep
  **warning** (v_$vreg_pc:0) pulse fall time is  < or = zero, reset to tstep
  **warning** (v_$valu_as:0) pulse rise time is  < or = zero, reset to tstep
  **warning** (v_$valu_as:0) pulse fall time is  < or = zero, reset to tstep
  **warning** (v_$valu_ds:0) pulse rise time is  < or = zero, reset to tstep
  **warning** (v_$valu_ds:0) pulse fall time is  < or = zero, reset to tstep
  **warning** (v_$valu_pc:0) pulse rise time is  < or = zero, reset to tstep
  **warning** (v_$valu_pc:0) pulse fall time is  < or = zero, reset to tstep
  **warning** (v_$vreg_as:0) pulse rise time is  < or = zero, reset to tstep
  **warning** (v_$vreg_as:0) pulse fall time is  < or = zero, reset to tstep
  **warning** (v_$vreg_ds:0) pulse rise time is  < or = zero, reset to tstep
  **warning** (v_$vreg_ds:0) pulse fall time is  < or = zero, reset to tstep
  **warning** (v_$vreg_pc:0) pulse rise time is  < or = zero, reset to tstep
  **warning** (v_$vreg_pc:0) pulse fall time is  < or = zero, reset to tstep
  **warning** (v_$valu_as:0) pulse rise time is  < or = zero, reset to tstep
  **warning** (v_$valu_as:0) pulse fall time is  < or = zero, reset to tstep
  **warning** (v_$valu_ds:0) pulse rise time is  < or = zero, reset to tstep
  **warning** (v_$valu_ds:0) pulse fall time is  < or = zero, reset to tstep
  **warning** (v_$valu_pc:0) pulse rise time is  < or = zero, reset to tstep
  **warning** (v_$valu_pc:0) pulse fall time is  < or = zero, reset to tstep
  **warning** (v_$vreg_as:0) pulse rise time is  < or = zero, reset to tstep
  **warning** (v_$vreg_as:0) pulse fall time is  < or = zero, reset to tstep
  **warning** (v_$vreg_ds:0) pulse rise time is  < or = zero, reset to tstep
  **warning** (v_$vreg_ds:0) pulse fall time is  < or = zero, reset to tstep
  **warning** (v_$vreg_pc:0) pulse rise time is  < or = zero, reset to tstep
  **warning** (v_$vreg_pc:0) pulse fall time is  < or = zero, reset to tstep
  **warning** (v_$valu_as:0) pulse rise time is  < or = zero, reset to tstep
  **warning** (v_$valu_as:0) pulse fall time is  < or = zero, reset to tstep
  **warning** (v_$valu_ds:0) pulse rise time is  < or = zero, reset to tstep
  **warning** (v_$valu_ds:0) pulse fall time is  < or = zero, reset to tstep
  **warning** (v_$valu_pc:0) pulse rise time is  < or = zero, reset to tstep
  **warning** (v_$valu_pc:0) pulse fall time is  < or = zero, reset to tstep
  **warning** (v_$vreg_as:0) pulse rise time is  < or = zero, reset to tstep
  **warning** (v_$vreg_as:0) pulse fall time is  < or = zero, reset to tstep
  **warning** (v_$vreg_ds:0) pulse rise time is  < or = zero, reset to tstep
  **warning** (v_$vreg_ds:0) pulse fall time is  < or = zero, reset to tstep
  **warning** (v_$vreg_pc:0) pulse rise time is  < or = zero, reset to tstep
  **warning** (v_$vreg_pc:0) pulse fall time is  < or = zero, reset to tstep
  **warning** (v_$valu_as:0) pulse rise time is  < or = zero, reset to tstep
  **warning** (v_$valu_as:0) pulse fall time is  < or = zero, reset to tstep
  **warning** (v_$valu_ds:0) pulse rise time is  < or = zero, reset to tstep
  **warning** (v_$valu_ds:0) pulse fall time is  < or = zero, reset to tstep
  **warning** (v_$valu_pc:0) pulse rise time is  < or = zero, reset to tstep
  **warning** (v_$valu_pc:0) pulse fall time is  < or = zero, reset to tstep
  **warning** (v_$vreg_as:0) pulse rise time is  < or = zero, reset to tstep
  **warning** (v_$vreg_as:0) pulse fall time is  < or = zero, reset to tstep
  **warning** (v_$vreg_ds:0) pulse rise time is  < or = zero, reset to tstep
  **warning** (v_$vreg_ds:0) pulse fall time is  < or = zero, reset to tstep
  **warning** (v_$vreg_pc:0) pulse rise time is  < or = zero, reset to tstep
  **warning** (v_$vreg_pc:0) pulse fall time is  < or = zero, reset to tstep
  **warning** (v_$valu_as:0) pulse rise time is  < or = zero, reset to tstep
  **warning** (v_$valu_as:0) pulse fall time is  < or = zero, reset to tstep
  **warning** (v_$valu_ds:0) pulse rise time is  < or = zero, reset to tstep
  **warning** (v_$valu_ds:0) pulse fall time is  < or = zero, reset to tstep
  **warning** (v_$valu_pc:0) pulse rise time is  < or = zero, reset to tstep
  **warning** (v_$valu_pc:0) pulse fall time is  < or = zero, reset to tstep
  **warning** (v_$vreg_as:0) pulse rise time is  < or = zero, reset to tstep
  **warning** (v_$vreg_as:0) pulse fall time is  < or = zero, reset to tstep
  **warning** (v_$vreg_ds:0) pulse rise time is  < or = zero, reset to tstep
  **warning** (v_$vreg_ds:0) pulse fall time is  < or = zero, reset to tstep
  **warning** (v_$vreg_pc:0) pulse rise time is  < or = zero, reset to tstep
  **warning** (v_$vreg_pc:0) pulse fall time is  < or = zero, reset to tstep
  **warning** (v_$valu_as:0) pulse rise time is  < or = zero, reset to tstep
  **warning** (v_$valu_as:0) pulse fall time is  < or = zero, reset to tstep
  **warning** (v_$valu_ds:0) pulse rise time is  < or = zero, reset to tstep
  **warning** (v_$valu_ds:0) pulse fall time is  < or = zero, reset to tstep
  **warning** (v_$valu_pc:0) pulse rise time is  < or = zero, reset to tstep
  **warning** (v_$valu_pc:0) pulse fall time is  < or = zero, reset to tstep
  **warning** (v_$vreg_as:0) pulse rise time is  < or = zero, reset to tstep
  **warning** (v_$vreg_as:0) pulse fall time is  < or = zero, reset to tstep
  **warning** (v_$vreg_ds:0) pulse rise time is  < or = zero, reset to tstep
  **warning** (v_$vreg_ds:0) pulse fall time is  < or = zero, reset to tstep
  **warning** (v_$vreg_pc:0) pulse rise time is  < or = zero, reset to tstep
  **warning** (v_$vreg_pc:0) pulse fall time is  < or = zero, reset to tstep
  **warning** (v_$valu_as:0) pulse rise time is  < or = zero, reset to tstep
  **warning** (v_$valu_as:0) pulse fall time is  < or = zero, reset to tstep
  **warning** (v_$valu_ds:0) pulse rise time is  < or = zero, reset to tstep
  **warning** (v_$valu_ds:0) pulse fall time is  < or = zero, reset to tstep
  **warning** (v_$valu_pc:0) pulse rise time is  < or = zero, reset to tstep
  **warning** (v_$valu_pc:0) pulse fall time is  < or = zero, reset to tstep
  **warning** (v_$vreg_as:0) pulse rise time is  < or = zero, reset to tstep
  **warning** (v_$vreg_as:0) pulse fall time is  < or = zero, reset to tstep
  **warning** (v_$vreg_ds:0) pulse rise time is  < or = zero, reset to tstep
  **warning** (v_$vreg_ds:0) pulse fall time is  < or = zero, reset to tstep
  **warning** (v_$vreg_pc:0) pulse rise time is  < or = zero, reset to tstep
  **warning** (v_$vreg_pc:0) pulse fall time is  < or = zero, reset to tstep
  **warning** (v_$valu_as:0) pulse rise time is  < or = zero, reset to tstep
  **warning** (v_$valu_as:0) pulse fall time is  < or = zero, reset to tstep
  **warning** (v_$valu_ds:0) pulse rise time is  < or = zero, reset to tstep
  **warning** (v_$valu_ds:0) pulse fall time is  < or = zero, reset to tstep
  **warning** (v_$valu_pc:0) pulse rise time is  < or = zero, reset to tstep
  **warning** (v_$valu_pc:0) pulse fall time is  < or = zero, reset to tstep
  **warning** (v_$vreg_as:0) pulse rise time is  < or = zero, reset to tstep
  **warning** (v_$vreg_as:0) pulse fall time is  < or = zero, reset to tstep
  **warning** (v_$vreg_ds:0) pulse rise time is  < or = zero, reset to tstep
  **warning** (v_$vreg_ds:0) pulse fall time is  < or = zero, reset to tstep
  **warning** (v_$vreg_pc:0) pulse rise time is  < or = zero, reset to tstep
  **warning** (v_$vreg_pc:0) pulse fall time is  < or = zero, reset to tstep
  **warning** (v_$valu_as:0) pulse rise time is  < or = zero, reset to tstep
  **warning** (v_$valu_as:0) pulse fall time is  < or = zero, reset to tstep
  **warning** (v_$valu_ds:0) pulse rise time is  < or = zero, reset to tstep
  **warning** (v_$valu_ds:0) pulse fall time is  < or = zero, reset to tstep
  **warning** (v_$valu_pc:0) pulse rise time is  < or = zero, reset to tstep
  **warning** (v_$valu_pc:0) pulse fall time is  < or = zero, reset to tstep
  **warning** (v_$vreg_as:0) pulse rise time is  < or = zero, reset to tstep
  **warning** (v_$vreg_as:0) pulse fall time is  < or = zero, reset to tstep
  **warning** (v_$vreg_ds:0) pulse rise time is  < or = zero, reset to tstep
  **warning** (v_$vreg_ds:0) pulse fall time is  < or = zero, reset to tstep
  **warning** (v_$vreg_pc:0) pulse rise time is  < or = zero, reset to tstep
  **warning** (v_$vreg_pc:0) pulse fall time is  < or = zero, reset to tstep
  **warning** (v_$valu_as:0) pulse rise time is  < or = zero, reset to tstep
  **warning** (v_$valu_as:0) pulse fall time is  < or = zero, reset to tstep
  **warning** (v_$valu_ds:0) pulse rise time is  < or = zero, reset to tstep
  **warning** (v_$valu_ds:0) pulse fall time is  < or = zero, reset to tstep
  **warning** (v_$valu_pc:0) pulse rise time is  < or = zero, reset to tstep
  **warning** (v_$valu_pc:0) pulse fall time is  < or = zero, reset to tstep
  **warning** (v_$vreg_as:0) pulse rise time is  < or = zero, reset to tstep
  **warning** (v_$vreg_as:0) pulse fall time is  < or = zero, reset to tstep
  **warning** (v_$vreg_ds:0) pulse rise time is  < or = zero, reset to tstep
  **warning** (v_$vreg_ds:0) pulse fall time is  < or = zero, reset to tstep
  **warning** (v_$vreg_pc:0) pulse rise time is  < or = zero, reset to tstep
  **warning** (v_$vreg_pc:0) pulse fall time is  < or = zero, reset to tstep
  **warning** (v_$valu_as:0) pulse rise time is  < or = zero, reset to tstep
  **warning** (v_$valu_as:0) pulse fall time is  < or = zero, reset to tstep
  **warning** (v_$valu_ds:0) pulse rise time is  < or = zero, reset to tstep
  **warning** (v_$valu_ds:0) pulse fall time is  < or = zero, reset to tstep
  **warning** (v_$valu_pc:0) pulse rise time is  < or = zero, reset to tstep
  **warning** (v_$valu_pc:0) pulse fall time is  < or = zero, reset to tstep
  **warning** (v_$vreg_as:0) pulse rise time is  < or = zero, reset to tstep
  **warning** (v_$vreg_as:0) pulse fall time is  < or = zero, reset to tstep
  **warning** (v_$vreg_ds:0) pulse rise time is  < or = zero, reset to tstep
  **warning** (v_$vreg_ds:0) pulse fall time is  < or = zero, reset to tstep
  **warning** (v_$vreg_pc:0) pulse rise time is  < or = zero, reset to tstep
  **warning** (v_$vreg_pc:0) pulse fall time is  < or = zero, reset to tstep
  **warning** (v_$valu_as:0) pulse rise time is  < or = zero, reset to tstep
  **warning** (v_$valu_as:0) pulse fall time is  < or = zero, reset to tstep
  **warning** (v_$valu_ds:0) pulse rise time is  < or = zero, reset to tstep
  **warning** (v_$valu_ds:0) pulse fall time is  < or = zero, reset to tstep
  **warning** (v_$valu_pc:0) pulse rise time is  < or = zero, reset to tstep
  **warning** (v_$valu_pc:0) pulse fall time is  < or = zero, reset to tstep
  **warning** (v_$vreg_as:0) pulse rise time is  < or = zero, reset to tstep
  **warning** (v_$vreg_as:0) pulse fall time is  < or = zero, reset to tstep
  **warning** (v_$vreg_ds:0) pulse rise time is  < or = zero, reset to tstep
  **warning** (v_$vreg_ds:0) pulse fall time is  < or = zero, reset to tstep
  **warning** (v_$vreg_pc:0) pulse rise time is  < or = zero, reset to tstep
  **warning** (v_$vreg_pc:0) pulse fall time is  < or = zero, reset to tstep
  **warning** (v_$valu_as:0) pulse rise time is  < or = zero, reset to tstep
  **warning** (v_$valu_as:0) pulse fall time is  < or = zero, reset to tstep
  **warning** (v_$valu_ds:0) pulse rise time is  < or = zero, reset to tstep
  **warning** (v_$valu_ds:0) pulse fall time is  < or = zero, reset to tstep
  **warning** (v_$valu_pc:0) pulse rise time is  < or = zero, reset to tstep
  **warning** (v_$valu_pc:0) pulse fall time is  < or = zero, reset to tstep
  **warning** (v_$vreg_as:0) pulse rise time is  < or = zero, reset to tstep
  **warning** (v_$vreg_as:0) pulse fall time is  < or = zero, reset to tstep
  **warning** (v_$vreg_ds:0) pulse rise time is  < or = zero, reset to tstep
  **warning** (v_$vreg_ds:0) pulse fall time is  < or = zero, reset to tstep
  **warning** (v_$vreg_pc:0) pulse rise time is  < or = zero, reset to tstep
  **warning** (v_$vreg_pc:0) pulse fall time is  < or = zero, reset to tstep
  **warning** (v_$valu_as:0) pulse rise time is  < or = zero, reset to tstep
  **warning** (v_$valu_as:0) pulse fall time is  < or = zero, reset to tstep
  **warning** (v_$valu_ds:0) pulse rise time is  < or = zero, reset to tstep
  **warning** (v_$valu_ds:0) pulse fall time is  < or = zero, reset to tstep
  **warning** (v_$valu_pc:0) pulse rise time is  < or = zero, reset to tstep
  **warning** (v_$valu_pc:0) pulse fall time is  < or = zero, reset to tstep
  **warning** (v_$vreg_as:0) pulse rise time is  < or = zero, reset to tstep
  **warning** (v_$vreg_as:0) pulse fall time is  < or = zero, reset to tstep
  **warning** (v_$vreg_ds:0) pulse rise time is  < or = zero, reset to tstep
  **warning** (v_$vreg_ds:0) pulse fall time is  < or = zero, reset to tstep
  **warning** (v_$vreg_pc:0) pulse rise time is  < or = zero, reset to tstep
  **warning** (v_$vreg_pc:0) pulse fall time is  < or = zero, reset to tstep
  **warning** (v_$valu_as:0) pulse rise time is  < or = zero, reset to tstep
  **warning** (v_$valu_as:0) pulse fall time is  < or = zero, reset to tstep
  **warning** (v_$valu_ds:0) pulse rise time is  < or = zero, reset to tstep
  **warning** (v_$valu_ds:0) pulse fall time is  < or = zero, reset to tstep
  **warning** (v_$valu_pc:0) pulse rise time is  < or = zero, reset to tstep
  **warning** (v_$valu_pc:0) pulse fall time is  < or = zero, reset to tstep
  **warning** (v_$vreg_as:0) pulse rise time is  < or = zero, reset to tstep
  **warning** (v_$vreg_as:0) pulse fall time is  < or = zero, reset to tstep
  **warning** (v_$vreg_ds:0) pulse rise time is  < or = zero, reset to tstep
  **warning** (v_$vreg_ds:0) pulse fall time is  < or = zero, reset to tstep
  **warning** (v_$vreg_pc:0) pulse rise time is  < or = zero, reset to tstep
  **warning** (v_$vreg_pc:0) pulse fall time is  < or = zero, reset to tstep
  **warning** (v_$valu_as:0) pulse rise time is  < or = zero, reset to tstep
  **warning** (v_$valu_as:0) pulse fall time is  < or = zero, reset to tstep
  **warning** (v_$valu_ds:0) pulse rise time is  < or = zero, reset to tstep
  **warning** (v_$valu_ds:0) pulse fall time is  < or = zero, reset to tstep
  **warning** (v_$valu_pc:0) pulse rise time is  < or = zero, reset to tstep
  **warning** (v_$valu_pc:0) pulse fall time is  < or = zero, reset to tstep
  **warning** (v_$vreg_as:0) pulse rise time is  < or = zero, reset to tstep
  **warning** (v_$vreg_as:0) pulse fall time is  < or = zero, reset to tstep
  **warning** (v_$vreg_ds:0) pulse rise time is  < or = zero, reset to tstep
  **warning** (v_$vreg_ds:0) pulse fall time is  < or = zero, reset to tstep
  **warning** (v_$vreg_pc:0) pulse rise time is  < or = zero, reset to tstep
  **warning** (v_$vreg_pc:0) pulse fall time is  < or = zero, reset to tstep
  **warning** (v_$valu_as:0) pulse rise time is  < or = zero, reset to tstep
  **warning** (v_$valu_as:0) pulse fall time is  < or = zero, reset to tstep
  **warning** (v_$valu_ds:0) pulse rise time is  < or = zero, reset to tstep
  **warning** (v_$valu_ds:0) pulse fall time is  < or = zero, reset to tstep
  **warning** (v_$valu_pc:0) pulse rise time is  < or = zero, reset to tstep
  **warning** (v_$valu_pc:0) pulse fall time is  < or = zero, reset to tstep
  **warning** (v_$vreg_as:0) pulse rise time is  < or = zero, reset to tstep
  **warning** (v_$vreg_as:0) pulse fall time is  < or = zero, reset to tstep
  **warning** (v_$vreg_ds:0) pulse rise time is  < or = zero, reset to tstep
  **warning** (v_$vreg_ds:0) pulse fall time is  < or = zero, reset to tstep
  **warning** (v_$vreg_pc:0) pulse rise time is  < or = zero, reset to tstep
  **warning** (v_$vreg_pc:0) pulse fall time is  < or = zero, reset to tstep
  **warning** (v_$valu_as:0) pulse rise time is  < or = zero, reset to tstep
  **warning** (v_$valu_as:0) pulse fall time is  < or = zero, reset to tstep
  **warning** (v_$valu_ds:0) pulse rise time is  < or = zero, reset to tstep
  **warning** (v_$valu_ds:0) pulse fall time is  < or = zero, reset to tstep
  **warning** (v_$valu_pc:0) pulse rise time is  < or = zero, reset to tstep
  **warning** (v_$valu_pc:0) pulse fall time is  < or = zero, reset to tstep
  **warning** (v_$vreg_as:0) pulse rise time is  < or = zero, reset to tstep
  **warning** (v_$vreg_as:0) pulse fall time is  < or = zero, reset to tstep
  **warning** (v_$vreg_ds:0) pulse rise time is  < or = zero, reset to tstep
  **warning** (v_$vreg_ds:0) pulse fall time is  < or = zero, reset to tstep
  **warning** (v_$vreg_pc:0) pulse rise time is  < or = zero, reset to tstep
  **warning** (v_$vreg_pc:0) pulse fall time is  < or = zero, reset to tstep
  **warning** (v_$valu_as:0) pulse rise time is  < or = zero, reset to tstep
  **warning** (v_$valu_as:0) pulse fall time is  < or = zero, reset to tstep
  **warning** (v_$valu_ds:0) pulse rise time is  < or = zero, reset to tstep
  **warning** (v_$valu_ds:0) pulse fall time is  < or = zero, reset to tstep
  **warning** (v_$valu_pc:0) pulse rise time is  < or = zero, reset to tstep
  **warning** (v_$valu_pc:0) pulse fall time is  < or = zero, reset to tstep
  **warning** (v_$vreg_as:0) pulse rise time is  < or = zero, reset to tstep
  **warning** (v_$vreg_as:0) pulse fall time is  < or = zero, reset to tstep
  **warning** (v_$vreg_ds:0) pulse rise time is  < or = zero, reset to tstep
  **warning** (v_$vreg_ds:0) pulse fall time is  < or = zero, reset to tstep
  **warning** (v_$vreg_pc:0) pulse rise time is  < or = zero, reset to tstep
  **warning** (v_$vreg_pc:0) pulse fall time is  < or = zero, reset to tstep
  **warning** (v_$valu_as:0) pulse rise time is  < or = zero, reset to tstep
  **warning** (v_$valu_as:0) pulse fall time is  < or = zero, reset to tstep
  **warning** (v_$valu_ds:0) pulse rise time is  < or = zero, reset to tstep
  **warning** (v_$valu_ds:0) pulse fall time is  < or = zero, reset to tstep
  **warning** (v_$valu_pc:0) pulse rise time is  < or = zero, reset to tstep
  **warning** (v_$valu_pc:0) pulse fall time is  < or = zero, reset to tstep
  **warning** (v_$vreg_as:0) pulse rise time is  < or = zero, reset to tstep
  **warning** (v_$vreg_as:0) pulse fall time is  < or = zero, reset to tstep
  **warning** (v_$vreg_ds:0) pulse rise time is  < or = zero, reset to tstep
  **warning** (v_$vreg_ds:0) pulse fall time is  < or = zero, reset to tstep
  **warning** (v_$vreg_pc:0) pulse rise time is  < or = zero, reset to tstep
  **warning** (v_$vreg_pc:0) pulse fall time is  < or = zero, reset to tstep
  **warning** (v_$valu_as:0) pulse rise time is  < or = zero, reset to tstep
  **warning** (v_$valu_as:0) pulse fall time is  < or = zero, reset to tstep
  **warning** (v_$valu_ds:0) pulse rise time is  < or = zero, reset to tstep
  **warning** (v_$valu_ds:0) pulse fall time is  < or = zero, reset to tstep
  **warning** (v_$valu_pc:0) pulse rise time is  < or = zero, reset to tstep
  **warning** (v_$valu_pc:0) pulse fall time is  < or = zero, reset to tstep
  **warning** (v_$vreg_as:0) pulse rise time is  < or = zero, reset to tstep
  **warning** (v_$vreg_as:0) pulse fall time is  < or = zero, reset to tstep
  **warning** (v_$vreg_ds:0) pulse rise time is  < or = zero, reset to tstep
  **warning** (v_$vreg_ds:0) pulse fall time is  < or = zero, reset to tstep
  **warning** (v_$vreg_pc:0) pulse rise time is  < or = zero, reset to tstep
  **warning** (v_$vreg_pc:0) pulse fall time is  < or = zero, reset to tstep
  **warning** (v_$valu_as:0) pulse rise time is  < or = zero, reset to tstep
  **warning** (v_$valu_as:0) pulse fall time is  < or = zero, reset to tstep
  **warning** (v_$valu_ds:0) pulse rise time is  < or = zero, reset to tstep
  **warning** (v_$valu_ds:0) pulse fall time is  < or = zero, reset to tstep
  **warning** (v_$valu_pc:0) pulse rise time is  < or = zero, reset to tstep
  **warning** (v_$valu_pc:0) pulse fall time is  < or = zero, reset to tstep
  **warning** (v_$vreg_as:0) pulse rise time is  < or = zero, reset to tstep
  **warning** (v_$vreg_as:0) pulse fall time is  < or = zero, reset to tstep
  **warning** (v_$vreg_ds:0) pulse rise time is  < or = zero, reset to tstep
  **warning** (v_$vreg_ds:0) pulse fall time is  < or = zero, reset to tstep
  **warning** (v_$vreg_pc:0) pulse rise time is  < or = zero, reset to tstep
  **warning** (v_$vreg_pc:0) pulse fall time is  < or = zero, reset to tstep
  **warning** (v_$valu_as:0) pulse rise time is  < or = zero, reset to tstep
  **warning** (v_$valu_as:0) pulse fall time is  < or = zero, reset to tstep
  **warning** (v_$valu_ds:0) pulse rise time is  < or = zero, reset to tstep
  **warning** (v_$valu_ds:0) pulse fall time is  < or = zero, reset to tstep
  **warning** (v_$valu_pc:0) pulse rise time is  < or = zero, reset to tstep
  **warning** (v_$valu_pc:0) pulse fall time is  < or = zero, reset to tstep
  **warning** (v_$vreg_as:0) pulse rise time is  < or = zero, reset to tstep
  **warning** (v_$vreg_as:0) pulse fall time is  < or = zero, reset to tstep
  **warning** (v_$vreg_ds:0) pulse rise time is  < or = zero, reset to tstep
  **warning** (v_$vreg_ds:0) pulse fall time is  < or = zero, reset to tstep
  **warning** (v_$vreg_pc:0) pulse rise time is  < or = zero, reset to tstep
  **warning** (v_$vreg_pc:0) pulse fall time is  < or = zero, reset to tstep
  **warning** (v_$valu_as:0) pulse rise time is  < or = zero, reset to tstep
  **warning** (v_$valu_as:0) pulse fall time is  < or = zero, reset to tstep
  **warning** (v_$valu_ds:0) pulse rise time is  < or = zero, reset to tstep
  **warning** (v_$valu_ds:0) pulse fall time is  < or = zero, reset to tstep
  **warning** (v_$valu_pc:0) pulse rise time is  < or = zero, reset to tstep
  **warning** (v_$valu_pc:0) pulse fall time is  < or = zero, reset to tstep
  **warning** (v_$vreg_as:0) pulse rise time is  < or = zero, reset to tstep
  **warning** (v_$vreg_as:0) pulse fall time is  < or = zero, reset to tstep
  **warning** (v_$vreg_ds:0) pulse rise time is  < or = zero, reset to tstep
  **warning** (v_$vreg_ds:0) pulse fall time is  < or = zero, reset to tstep
  **warning** (v_$vreg_pc:0) pulse rise time is  < or = zero, reset to tstep
  **warning** (v_$vreg_pc:0) pulse fall time is  < or = zero, reset to tstep
  **warning** (v_$valu_as:0) pulse rise time is  < or = zero, reset to tstep
  **warning** (v_$valu_as:0) pulse fall time is  < or = zero, reset to tstep
  **warning** (v_$valu_ds:0) pulse rise time is  < or = zero, reset to tstep
  **warning** (v_$valu_ds:0) pulse fall time is  < or = zero, reset to tstep
  **warning** (v_$valu_pc:0) pulse rise time is  < or = zero, reset to tstep
  **warning** (v_$valu_pc:0) pulse fall time is  < or = zero, reset to tstep
  **warning** (v_$vreg_as:0) pulse rise time is  < or = zero, reset to tstep
  **warning** (v_$vreg_as:0) pulse fall time is  < or = zero, reset to tstep
  **warning** (v_$vreg_ds:0) pulse rise time is  < or = zero, reset to tstep
  **warning** (v_$vreg_ds:0) pulse fall time is  < or = zero, reset to tstep
  **warning** (v_$vreg_pc:0) pulse rise time is  < or = zero, reset to tstep
  **warning** (v_$vreg_pc:0) pulse fall time is  < or = zero, reset to tstep
  **warning** (v_$valu_as:0) pulse rise time is  < or = zero, reset to tstep
  **warning** (v_$valu_as:0) pulse fall time is  < or = zero, reset to tstep
  **warning** (v_$valu_ds:0) pulse rise time is  < or = zero, reset to tstep
  **warning** (v_$valu_ds:0) pulse fall time is  < or = zero, reset to tstep
  **warning** (v_$valu_pc:0) pulse rise time is  < or = zero, reset to tstep
  **warning** (v_$valu_pc:0) pulse fall time is  < or = zero, reset to tstep
  **warning** (v_$vreg_as:0) pulse rise time is  < or = zero, reset to tstep
  **warning** (v_$vreg_as:0) pulse fall time is  < or = zero, reset to tstep
  **warning** (v_$vreg_ds:0) pulse rise time is  < or = zero, reset to tstep
  **warning** (v_$vreg_ds:0) pulse fall time is  < or = zero, reset to tstep
  **warning** (v_$vreg_pc:0) pulse rise time is  < or = zero, reset to tstep
  **warning** (v_$vreg_pc:0) pulse fall time is  < or = zero, reset to tstep
  **warning** (v_$valu_as:0) pulse rise time is  < or = zero, reset to tstep
  **warning** (v_$valu_as:0) pulse fall time is  < or = zero, reset to tstep
  **warning** (v_$valu_ds:0) pulse rise time is  < or = zero, reset to tstep
  **warning** (v_$valu_ds:0) pulse fall time is  < or = zero, reset to tstep
  **warning** (v_$valu_pc:0) pulse rise time is  < or = zero, reset to tstep
  **warning** (v_$valu_pc:0) pulse fall time is  < or = zero, reset to tstep
  **warning** (v_$vreg_as:0) pulse rise time is  < or = zero, reset to tstep
  **warning** (v_$vreg_as:0) pulse fall time is  < or = zero, reset to tstep
  **warning** (v_$vreg_ds:0) pulse rise time is  < or = zero, reset to tstep
  **warning** (v_$vreg_ds:0) pulse fall time is  < or = zero, reset to tstep
  **warning** (v_$vreg_pc:0) pulse rise time is  < or = zero, reset to tstep
  **warning** (v_$vreg_pc:0) pulse fall time is  < or = zero, reset to tstep
  **warning** (v_$valu_as:0) pulse rise time is  < or = zero, reset to tstep
  **warning** (v_$valu_as:0) pulse fall time is  < or = zero, reset to tstep
  **warning** (v_$valu_ds:0) pulse rise time is  < or = zero, reset to tstep
  **warning** (v_$valu_ds:0) pulse fall time is  < or = zero, reset to tstep
  **warning** (v_$valu_pc:0) pulse rise time is  < or = zero, reset to tstep
  **warning** (v_$valu_pc:0) pulse fall time is  < or = zero, reset to tstep
  **warning** (v_$vreg_as:0) pulse rise time is  < or = zero, reset to tstep
  **warning** (v_$vreg_as:0) pulse fall time is  < or = zero, reset to tstep
  **warning** (v_$vreg_ds:0) pulse rise time is  < or = zero, reset to tstep
  **warning** (v_$vreg_ds:0) pulse fall time is  < or = zero, reset to tstep
  **warning** (v_$vreg_pc:0) pulse rise time is  < or = zero, reset to tstep
  **warning** (v_$vreg_pc:0) pulse fall time is  < or = zero, reset to tstep
  **warning** (v_$valu_as:0) pulse rise time is  < or = zero, reset to tstep
  **warning** (v_$valu_as:0) pulse fall time is  < or = zero, reset to tstep
  **warning** (v_$valu_ds:0) pulse rise time is  < or = zero, reset to tstep
  **warning** (v_$valu_ds:0) pulse fall time is  < or = zero, reset to tstep
  **warning** (v_$valu_pc:0) pulse rise time is  < or = zero, reset to tstep
  **warning** (v_$valu_pc:0) pulse fall time is  < or = zero, reset to tstep
  **warning** (v_$vreg_as:0) pulse rise time is  < or = zero, reset to tstep
  **warning** (v_$vreg_as:0) pulse fall time is  < or = zero, reset to tstep
  **warning** (v_$vreg_ds:0) pulse rise time is  < or = zero, reset to tstep
  **warning** (v_$vreg_ds:0) pulse fall time is  < or = zero, reset to tstep
  **warning** (v_$vreg_pc:0) pulse rise time is  < or = zero, reset to tstep
  **warning** (v_$vreg_pc:0) pulse fall time is  < or = zero, reset to tstep
  **warning** (v_$valu_as:0) pulse rise time is  < or = zero, reset to tstep
  **warning** (v_$valu_as:0) pulse fall time is  < or = zero, reset to tstep
  **warning** (v_$valu_ds:0) pulse rise time is  < or = zero, reset to tstep
  **warning** (v_$valu_ds:0) pulse fall time is  < or = zero, reset to tstep
  **warning** (v_$valu_pc:0) pulse rise time is  < or = zero, reset to tstep
  **warning** (v_$valu_pc:0) pulse fall time is  < or = zero, reset to tstep
  **warning** (v_$vreg_as:0) pulse rise time is  < or = zero, reset to tstep
  **warning** (v_$vreg_as:0) pulse fall time is  < or = zero, reset to tstep
  **warning** (v_$vreg_ds:0) pulse rise time is  < or = zero, reset to tstep
  **warning** (v_$vreg_ds:0) pulse fall time is  < or = zero, reset to tstep
  **warning** (v_$vreg_pc:0) pulse rise time is  < or = zero, reset to tstep
  **warning** (v_$vreg_pc:0) pulse fall time is  < or = zero, reset to tstep
  **warning** (v_$valu_as:0) pulse rise time is  < or = zero, reset to tstep
  **warning** (v_$valu_as:0) pulse fall time is  < or = zero, reset to tstep
  **warning** (v_$valu_ds:0) pulse rise time is  < or = zero, reset to tstep
  **warning** (v_$valu_ds:0) pulse fall time is  < or = zero, reset to tstep
  **warning** (v_$valu_pc:0) pulse rise time is  < or = zero, reset to tstep
  **warning** (v_$valu_pc:0) pulse fall time is  < or = zero, reset to tstep
  **warning** (v_$vreg_as:0) pulse rise time is  < or = zero, reset to tstep
  **warning** (v_$vreg_as:0) pulse fall time is  < or = zero, reset to tstep
  **warning** (v_$vreg_ds:0) pulse rise time is  < or = zero, reset to tstep
  **warning** (v_$vreg_ds:0) pulse fall time is  < or = zero, reset to tstep
  **warning** (v_$vreg_pc:0) pulse rise time is  < or = zero, reset to tstep
  **warning** (v_$vreg_pc:0) pulse fall time is  < or = zero, reset to tstep
  **warning** (v_$valu_as:0) pulse rise time is  < or = zero, reset to tstep
  **warning** (v_$valu_as:0) pulse fall time is  < or = zero, reset to tstep
  **warning** (v_$valu_ds:0) pulse rise time is  < or = zero, reset to tstep
  **warning** (v_$valu_ds:0) pulse fall time is  < or = zero, reset to tstep
  **warning** (v_$valu_pc:0) pulse rise time is  < or = zero, reset to tstep
  **warning** (v_$valu_pc:0) pulse fall time is  < or = zero, reset to tstep
  **warning** (v_$vreg_as:0) pulse rise time is  < or = zero, reset to tstep
  **warning** (v_$vreg_as:0) pulse fall time is  < or = zero, reset to tstep
  **warning** (v_$vreg_ds:0) pulse rise time is  < or = zero, reset to tstep
  **warning** (v_$vreg_ds:0) pulse fall time is  < or = zero, reset to tstep
  **warning** (v_$vreg_pc:0) pulse rise time is  < or = zero, reset to tstep
  **warning** (v_$vreg_pc:0) pulse fall time is  < or = zero, reset to tstep
  **warning** (v_$valu_as:0) pulse rise time is  < or = zero, reset to tstep
  **warning** (v_$valu_as:0) pulse fall time is  < or = zero, reset to tstep
  **warning** (v_$valu_ds:0) pulse rise time is  < or = zero, reset to tstep
  **warning** (v_$valu_ds:0) pulse fall time is  < or = zero, reset to tstep
  **warning** (v_$valu_pc:0) pulse rise time is  < or = zero, reset to tstep
  **warning** (v_$valu_pc:0) pulse fall time is  < or = zero, reset to tstep
  **warning** (v_$vreg_as:0) pulse rise time is  < or = zero, reset to tstep
  **warning** (v_$vreg_as:0) pulse fall time is  < or = zero, reset to tstep
  **warning** (v_$vreg_ds:0) pulse rise time is  < or = zero, reset to tstep
  **warning** (v_$vreg_ds:0) pulse fall time is  < or = zero, reset to tstep
  **warning** (v_$vreg_pc:0) pulse rise time is  < or = zero, reset to tstep
  **warning** (v_$vreg_pc:0) pulse fall time is  < or = zero, reset to tstep
 ******
 *********************************************************

 ****** dc transfer curves tnom=  25.000 temp=  70.000 ******
x

 va           voltage    voltage    voltage    voltage   
             select     subtract   alu_pc     alu_ds     
    0.          5.0000     0.         0.         0.      
  100.00000m    5.0000     0.         0.         0.      
  200.00000m    5.0000     0.         0.         0.      
  300.00000m    5.0000     0.         0.         0.      
  400.00000m    5.0000     0.         0.         0.      
  500.00000m    5.0000     0.         0.         0.      
  600.00000m    5.0000     0.         0.         0.      
  700.00000m    5.0000     0.         0.         0.      
  800.00000m    5.0000     0.         0.         0.      
  900.00000m    5.0000     0.         0.         0.      
    1.00000     5.0000     0.         0.         0.      
    1.10000     5.0000     0.         0.         0.      
    1.20000     5.0000     0.         0.         0.      
    1.30000     5.0000     0.         0.         0.      
    1.40000     5.0000     0.         0.         0.      
    1.50000     5.0000     0.         0.         0.      
    1.60000     5.0000     0.         0.         0.      
    1.70000     5.0000     0.         0.         0.      
    1.80000     5.0000     0.         0.         0.      
    1.90000     5.0000     0.         0.         0.      
    2.00000     5.0000     0.         0.         0.      
    2.10000     5.0000     0.         0.         0.      
    2.20000     5.0000     0.         0.         0.      
    2.30000     5.0000     0.         0.         0.      
    2.40000     5.0000     0.         0.         0.      
    2.50000     5.0000     0.         0.         0.      
    2.60000     5.0000     0.         0.         0.      
    2.70000     5.0000     0.         0.         0.      
    2.80000     5.0000     0.         0.         0.      
    2.90000     5.0000     0.         0.         0.      
    3.00000     5.0000     0.         0.         0.      
    3.10000     5.0000     0.         0.         0.      
    3.20000     5.0000     0.         0.         0.      
    3.30000     5.0000     0.         0.         0.      
    3.40000     5.0000     0.         0.         0.      
    3.50000     5.0000     0.         0.         0.      
    3.60000     5.0000     0.         0.         0.      
    3.70000     5.0000     0.         0.         0.      
    3.80000     5.0000     0.         0.         0.      
    3.90000     5.0000     0.         0.         0.      
    4.00000     5.0000     0.         0.         0.      
    4.10000     5.0000     0.         0.         0.      
    4.20000     5.0000     0.         0.         0.      
    4.30000     5.0000     0.         0.         0.      
    4.40000     5.0000     0.         0.         0.      
    4.50000     5.0000     0.         0.         0.      
    4.60000     5.0000     0.         0.         0.      
    4.70000     5.0000     0.         0.         0.      
    4.80000     5.0000     0.         0.         0.      
    4.90000     5.0000     0.         0.         0.      
    5.00000     5.0000     0.         0.         0.      
y
x

 va           voltage    voltage    voltage    voltage   
             alu_as     reg_pc     reg_ds     reg_as     
    0.          5.0000     0.         5.0000     0.      
  100.00000m    5.0000     0.         5.0000     0.      
  200.00000m    5.0000     0.         5.0000     0.      
  300.00000m    5.0000     0.         5.0000     0.      
  400.00000m    5.0000     0.         5.0000     0.      
  500.00000m    5.0000     0.         5.0000     0.      
  600.00000m    5.0000     0.         5.0000     0.      
  700.00000m    5.0000     0.         5.0000     0.      
  800.00000m    5.0000     0.         5.0000     0.      
  900.00000m    5.0000     0.         5.0000     0.      
    1.00000     5.0000     0.         5.0000     0.      
    1.10000     5.0000     0.         5.0000     0.      
    1.20000     5.0000     0.         5.0000     0.      
    1.30000     5.0000     0.         5.0000     0.      
    1.40000     5.0000     0.         5.0000     0.      
    1.50000     5.0000     0.         5.0000     0.      
    1.60000     5.0000     0.         5.0000     0.      
    1.70000     5.0000     0.         5.0000     0.      
    1.80000     5.0000     0.         5.0000     0.      
    1.90000     5.0000     0.         5.0000     0.      
    2.00000     5.0000     0.         5.0000     0.      
    2.10000     5.0000     0.         5.0000     0.      
    2.20000     5.0000     0.         5.0000     0.      
    2.30000     5.0000     0.         5.0000     0.      
    2.40000     5.0000     0.         5.0000     0.      
    2.50000     5.0000     0.         5.0000     0.      
    2.60000     5.0000     0.         5.0000     0.      
    2.70000     5.0000     0.         5.0000     0.      
    2.80000     5.0000     0.         5.0000     0.      
    2.90000     5.0000     0.         5.0000     0.      
    3.00000     5.0000     0.         5.0000     0.      
    3.10000     5.0000     0.         5.0000     0.      
    3.20000     5.0000     0.         5.0000     0.      
    3.30000     5.0000     0.         5.0000     0.      
    3.40000     5.0000     0.         5.0000     0.      
    3.50000     5.0000     0.         5.0000     0.      
    3.60000     5.0000     0.         5.0000     0.      
    3.70000     5.0000     0.         5.0000     0.      
    3.80000     5.0000     0.         5.0000     0.      
    3.90000     5.0000     0.         5.0000     0.      
    4.00000     5.0000     0.         5.0000     0.      
    4.10000     5.0000     0.         5.0000     0.      
    4.20000     5.0000     0.         5.0000     0.      
    4.30000     5.0000     0.         5.0000     0.      
    4.40000     5.0000     0.         5.0000     0.      
    4.50000     5.0000     0.         5.0000     0.      
    4.60000     5.0000     0.         5.0000     0.      
    4.70000     5.0000     0.         5.0000     0.      
    4.80000     5.0000     0.         5.0000     0.      
    4.90000     5.0000     0.         5.0000     0.      
    5.00000     5.0000     0.         5.0000     0.      
y
x

 va           voltage    voltage    voltage    voltage   
             a2         a1         a0         d2         
    0.          0.         0.         0.         0.      
  100.00000m    0.         0.         0.         0.      
  200.00000m    0.         0.         0.         0.      
  300.00000m    0.         0.         0.         0.      
  400.00000m    0.         0.         0.         0.      
  500.00000m    0.         0.         0.         0.      
  600.00000m    0.         0.         0.         0.      
  700.00000m    0.         0.         0.         0.      
  800.00000m    0.         0.         0.         0.      
  900.00000m    0.         0.         0.         0.      
    1.00000     0.         0.         0.         0.      
    1.10000     0.         0.         0.         0.      
    1.20000     0.         0.         0.         0.      
    1.30000     0.         0.         0.         0.      
    1.40000     0.         0.         0.         0.      
    1.50000     0.         0.         0.         0.      
    1.60000     0.         0.         0.         0.      
    1.70000     0.         0.         0.         0.      
    1.80000     0.         0.         0.         0.      
    1.90000     0.         0.         0.         0.      
    2.00000     0.         0.         0.         0.      
    2.10000     0.         0.         0.         0.      
    2.20000     0.         0.         0.         0.      
    2.30000     0.         0.         0.         0.      
    2.40000     0.         0.         0.         0.      
    2.50000     0.         0.         0.         0.      
    2.60000     0.         0.         0.         0.      
    2.70000     0.         0.         0.         0.      
    2.80000     0.         0.         0.         0.      
    2.90000     0.         0.         0.         0.      
    3.00000     0.         0.         0.         0.      
    3.10000     0.         0.         0.         0.      
    3.20000     0.         0.         0.         0.      
    3.30000     0.         0.         0.         0.      
    3.40000     0.         0.         0.         0.      
    3.50000     0.         0.         0.         0.      
    3.60000     0.         0.         0.         0.      
    3.70000     0.         0.         0.         0.      
    3.80000     0.         0.         0.         0.      
    3.90000     0.         0.         0.         0.      
    4.00000     0.         0.         0.         0.      
    4.10000     0.         0.         0.         0.      
    4.20000     0.         0.         0.         0.      
    4.30000     0.         0.         0.         0.      
    4.40000     0.         0.         0.         0.      
    4.50000     0.         0.         0.         0.      
    4.60000     0.         0.         0.         0.      
    4.70000     0.         0.         0.         0.      
    4.80000     0.         0.         0.         0.      
    4.90000     0.         0.         0.         0.      
    5.00000     0.         0.         0.         0.      
y
x

 va           voltage    voltage    voltage    voltage   
             d1         d0         i7         i6         
    0.          0.         0.         0.         0.      
  100.00000m    0.         0.         0.         0.      
  200.00000m    0.         0.         0.         0.      
  300.00000m    0.         0.         0.         0.      
  400.00000m    0.         0.         0.         0.      
  500.00000m    0.         0.         0.         0.      
  600.00000m    0.         0.         0.         0.      
  700.00000m    0.         0.         0.         0.      
  800.00000m    0.         0.         0.         0.      
  900.00000m    0.         0.         0.         0.      
    1.00000     0.         0.         0.         0.      
    1.10000     0.         0.         0.         0.      
    1.20000     0.         0.         0.         0.      
    1.30000     0.         0.         0.         0.      
    1.40000     0.         0.         0.         0.      
    1.50000     0.         0.         0.         0.      
    1.60000     0.         0.         0.         0.      
    1.70000     0.         0.         0.         0.      
    1.80000     0.         0.         0.         0.      
    1.90000     0.         0.         0.         0.      
    2.00000     0.         0.         0.         0.      
    2.10000     0.         0.         0.         0.      
    2.20000     0.         0.         0.         0.      
    2.30000     0.         0.         0.         0.      
    2.40000     0.         0.         0.         0.      
    2.50000     0.         0.         0.         0.      
    2.60000     0.         0.         0.         0.      
    2.70000     0.         0.         0.         0.      
    2.80000     0.         0.         0.         0.      
    2.90000     0.         0.         0.         0.      
    3.00000     0.         0.         0.         0.      
    3.10000     0.         0.         0.         0.      
    3.20000     0.         0.         0.         0.      
    3.30000     0.         0.         0.         0.      
    3.40000     0.         0.         0.         0.      
    3.50000     0.         0.         0.         0.      
    3.60000     0.         0.         0.         0.      
    3.70000     0.         0.         0.         0.      
    3.80000     0.         0.         0.         0.      
    3.90000     0.         0.         0.         0.      
    4.00000     0.         0.         0.         0.      
    4.10000     0.         0.         0.         0.      
    4.20000     0.         0.         0.         0.      
    4.30000     0.         0.         0.         0.      
    4.40000     0.         0.         0.         0.      
    4.50000     0.         0.         0.         0.      
    4.60000     0.         0.         0.         0.      
    4.70000     0.         0.         0.         0.      
    4.80000     0.         0.         0.         0.      
    4.90000     0.         0.         0.         0.      
    5.00000     0.         0.         0.         0.      
y
x

 va           voltage    voltage    voltage    voltage   
             i5         i4         i3         i2         
    0.          0.         0.         0.         0.      
  100.00000m    0.         0.         0.         0.      
  200.00000m    0.         0.         0.         0.      
  300.00000m    0.         0.         0.         0.      
  400.00000m    0.         0.         0.         0.      
  500.00000m    0.         0.         0.         0.      
  600.00000m    0.         0.         0.         0.      
  700.00000m    0.         0.         0.         0.      
  800.00000m    0.         0.         0.         0.      
  900.00000m    0.         0.         0.         0.      
    1.00000     0.         0.         0.         0.      
    1.10000     0.         0.         0.         0.      
    1.20000     0.         0.         0.         0.      
    1.30000     0.         0.         0.         0.      
    1.40000     0.         0.         0.         0.      
    1.50000     0.         0.         0.         0.      
    1.60000     0.         0.         0.         0.      
    1.70000     0.         0.         0.         0.      
    1.80000     0.         0.         0.         0.      
    1.90000     0.         0.         0.         0.      
    2.00000     0.         0.         0.         0.      
    2.10000     0.         0.         0.         0.      
    2.20000     0.         0.         0.         0.      
    2.30000     0.         0.         0.         0.      
    2.40000     0.         0.         0.         0.      
    2.50000     0.         0.         0.         0.      
    2.60000     0.         0.         0.         0.      
    2.70000     0.         0.         0.         0.      
    2.80000     0.         0.         0.         0.      
    2.90000     0.         0.         0.         0.      
    3.00000     0.         0.         0.         0.      
    3.10000     0.         0.         0.         0.      
    3.20000     0.         0.         0.         0.      
    3.30000     0.         0.         0.         0.      
    3.40000     0.         0.         0.         0.      
    3.50000     0.         0.         0.         0.      
    3.60000     0.         0.         0.         0.      
    3.70000     0.         0.         0.         0.      
    3.80000     0.         0.         0.         0.      
    3.90000     0.         0.         0.         0.      
    4.00000     0.         0.         0.         0.      
    4.10000     0.         0.         0.         0.      
    4.20000     0.         0.         0.         0.      
    4.30000     0.         0.         0.         0.      
    4.40000     0.         0.         0.         0.      
    4.50000     0.         0.         0.         0.      
    4.60000     0.         0.         0.         0.      
    4.70000     0.         0.         0.         0.      
    4.80000     0.         0.         0.         0.      
    4.90000     0.         0.         0.         0.      
    5.00000     0.         0.         0.         0.      
y
x

 va           voltage    voltage    voltage    voltage   
             i1         i0         ad7        ad6        
    0.          0.         5.0000     4.7863     4.7502  
  100.00000m    0.         5.0000     4.7863     4.7502  
  200.00000m    0.         5.0000     4.7863     4.7502  
  300.00000m    0.         5.0000     4.7863     4.7502  
  400.00000m    0.         5.0000     4.7863     4.7502  
[...]
   55.75000n    2.5856m    2.6576m 
   55.80000n    2.5207m    2.5943m 
   55.85000n    2.4526m    2.5271m 
   55.90000n    2.3642m    2.4374m 
   55.95000n    2.2576m    2.3275m 
   56.00000n    2.1510m    2.2176m 
   56.05000n   12.1441m   11.9066m 
   56.10000n   -4.3121m   -4.9224m 
   56.15000n   -8.8375m   -9.5300m 
   56.20000n   -9.4647m  -10.1361m 
   56.25000n   -8.9865m   -9.6066m 
   56.30000n   -8.3370m   -8.9136m 
   56.35000n   -7.7685m   -8.3095m 
   56.40000n   -7.3233m   -7.8400m 
   56.45000n   -6.9543m   -7.4539m 
   56.50000n   -6.5951m   -7.0781m 
   56.55000n   -6.2467m   -6.7135m 
   56.60000n   -5.8961m   -6.3462m 
   56.65000n   -5.5351m   -5.9672m 
   56.70000n   -5.1824m   -5.5963m 
   56.75000n   -4.8494m   -5.2458m 
   56.80000n   -4.5196m   -4.8989m 
   56.85000n   -4.1892m   -4.5499m 
   56.90000n   -3.8590m   -4.2004m 
   56.95000n   -3.5319m   -3.8527m 
   57.00000n   -3.2114m   -3.5106m 
   57.05000n   -2.9004m   -3.1778m 
   57.10000n   -2.6085m   -2.8643m 
   57.15000n   -2.3430m   -2.5779m 
   57.20000n   -2.1068m   -2.3217m 
   57.25000n   -1.9150m   -2.1116m 
   57.30000n   -1.7714m   -1.9517m 
   57.35000n   -1.6479m   -1.8135m 
   57.40000n   -1.5380m   -1.6914m 
   57.45000n   -1.4293m   -1.5724m 
   57.50000n   -1.3179m   -1.4520m 
   57.55000n   -1.1970m   -1.3222m 
   57.60000n   -1.0651m   -1.1806m 
   57.65000n -929.8599u   -1.0349m 
   57.70000n -796.0151u -890.1902u 
   57.75000n -669.8914u -753.3131u 
   57.80000n -560.1574u -633.6893u 
   57.85000n -462.1113u -526.5212u 
   57.90000n -377.6872u -433.9179u 
   57.95000n -310.4862u -359.8036u 
   58.00000n -248.5596u -291.3607u 
   58.05000n -198.8591u -236.0795u 
   58.10000n -158.2205u -190.6378u 
   58.15000n -119.7437u -147.5435u 
   58.20000n  -88.9599u -112.8601u 
   58.25000n  -61.7940u  -82.1950u 
   58.30000n  -39.1698u  -56.5884u 
   58.35000n  -22.1485u  -37.2096u 
   58.40000n   -8.8831u  -21.9207u 
   58.45000n    1.4246u   -9.8391u 
   58.50000n    8.4126u   -1.3757u 
   58.55000n   13.5684u    5.0553u 
   58.60000n   17.1004u    9.6556u 
   58.65000n   19.6224u   13.0957u 
   58.70000n   20.9260u   15.1110u 
   58.75000n   22.0631u   16.9306u 
   58.80000n   22.5681u   17.9550u 
   58.85000n   22.6465u   18.4429u 
   58.90000n   22.4809u   18.6374u 
   58.95000n   22.0427u   18.5026u 
   59.00000n   21.0172u   17.7789u 
   59.05000n   19.6165u   16.6993u 
   59.10000n   18.1094u   15.5111u 
   59.15000n   16.2879u   14.0021u 
   59.20000n   14.6698u   12.6441u 
   59.25000n   13.2157u   11.4079u 
   59.30000n   11.9323u   10.3050u 
   59.35000n   10.8352u    9.3476u 
   59.40000n    9.8363u    8.4717u 
   59.45000n    9.1303u    7.8388u 
   59.50000n    8.4243u    7.2060u 
   59.55000n    8.0923u    6.8960u 
   59.60000n    7.8416u    6.6562u 
   59.65000n    7.6105u    6.4283u 
   59.70000n    7.3917u    6.2078u 
   59.75000n    6.9353u    5.7764u 
   59.80000n    6.3525u    5.2327u 
   59.85000n    5.7398u    4.6681u 
   59.90000n    5.1222u    4.1001u 
   59.95000n    4.5722u    3.5955u 
   60.00000n    4.0384u    3.1059u 
   60.05000n   -6.9594m   -6.8680m 
   60.10000n   -2.5437m   -1.3269m 
   60.15000n   26.9060m   30.5380m 
   60.20000n   33.4384m   36.8251m 
   60.25000n   30.5776m   32.9415m 
   60.30000n   24.1406m   25.5056m 
   60.35000n   17.7421m   18.4499m 
   60.40000n   12.5084m   12.8493m 
   60.45000n    8.6892m    8.8559m 
   60.50000n    5.8005m    5.8736m 
   60.55000n    3.9246m    3.9604m 
   60.60000n    2.6224m    2.6397m 
   60.65000n    1.7462m    1.7546m 
   60.70000n    1.1413m    1.1452m 
   60.75000n  762.8595u  764.8635u 
   60.80000n  507.8042u  508.7717u 
   60.85000n  325.3428u  325.7479u 
   60.90000n  211.9317u  212.1156u 
   60.95000n  137.9558u  138.0179u 
   61.00000n   85.9898u   85.9893u 
   61.05000n   20.7848m   20.9089m 
   61.10000n    5.4731m    5.5288m 
   61.15000n -885.7010u -993.5614u 
   61.20000n   -3.9026m   -4.1468m 
   61.25000n   -5.3875m   -5.7019m 
   61.30000n   -5.9121m   -6.2570m 
   61.35000n   -6.3382m   -6.7094m 
   61.40000n   -6.4556m   -6.8413m 
   61.45000n   -6.5459m   -6.9452m 
   61.50000n   -6.6090m   -7.0207m 
   61.55000n   -6.6181m   -7.0405m 
   61.60000n   -6.6273m   -7.0602m 
   61.65000n   -6.6297m   -7.0729m 
   61.70000n   -6.5986m   -7.0504m 
   61.75000n   -6.5676m   -7.0279m 
   61.80000n   -6.5353m   -7.0041m 
   61.85000n   -6.4233m   -6.8947m 
   61.90000n   -6.3112m   -6.7854m 
   61.95000n   -6.1794m   -6.6544m 
   62.00000n   -5.9377m   -6.4036m 
   62.05000n   -5.6960m   -6.1528m 
   62.10000n   -5.4175m   -5.8607m 
   62.15000n   -5.0846m   -5.5078m 
   62.20000n   -4.7518m   -5.1549m 
   62.25000n   -4.4198m   -4.8026m 
   62.30000n   -4.0969m   -4.4565m 
   62.35000n   -3.7740m   -4.1103m 
   62.40000n   -3.4755m   -3.7892m 
   62.45000n   -3.1857m   -3.4770m 
   62.50000n   -2.9046m   -3.1739m 
   62.55000n   -2.6562m   -2.9049m 
   62.60000n   -2.4165m   -2.6452m 
   62.65000n   -2.1996m   -2.4097m 
   62.70000n   -1.9921m   -2.1842m 
   62.75000n   -1.8144m   -1.9907m 
   62.80000n   -1.6368m   -1.7972m 
   62.85000n   -1.4871m   -1.6338m 
   62.90000n   -1.3503m   -1.4843m 
   62.95000n   -1.2135m   -1.3348m 
   63.00000n   -1.0845m   -1.1938m 
   63.05000n -993.0527u   -1.0934m 
   63.10000n -901.5674u -993.0519u 
   63.15000n -810.0821u -892.6691u 
   63.20000n -718.5967u -792.2863u 
   63.25000n -641.5137u -707.6296u 
   63.30000n -586.0658u -646.5971u 
   63.35000n -530.6180u -585.5645u 
   63.40000n -475.1702u -524.5319u 
   63.45000n -419.7224u -463.4993u 
   63.50000n -370.8744u -409.7061u 
   63.55000n -339.5440u -375.1277u 
   63.60000n -308.2135u -340.5494u 
   63.65000n -276.8831u -305.9710u 
   63.70000n -245.5527u -271.3927u 
   63.75000n -214.2222u -236.8144u 
   63.80000n -197.8305u -218.7168u 
   63.85000n -181.5869u -200.7828u 
   63.90000n -165.3434u -182.8488u 
   63.95000n -149.0998u -164.9148u 
   64.00000n -132.8563u -146.9807u 
   64.05000n -116.6128u -129.0467u 
   64.10000n -100.3692u -111.1127u 
   64.15000n  -84.3513u  -93.4350u 
   64.20000n  -79.5894u  -88.5427u 
   64.25000n  -74.8274u  -83.6504u 
   64.30000n  -70.0655u  -78.7581u 
   64.35000n  -65.3036u  -73.8658u 
   64.40000n  -60.5416u  -68.9735u 
   64.45000n  -55.7797u  -64.0812u 
   64.50000n  -51.0178u  -59.1889u 
   64.55000n  -46.2559u  -54.2966u 
   64.60000n  -41.4939u  -49.4044u 
   64.65000n  -36.7320u  -44.5121u 
   64.70000n  -31.9701u  -39.6198u 
   64.75000n  -27.2081u  -34.7275u 
   64.80000n  -22.4462u  -29.8352u 
   64.85000n  -19.3160u  -25.7110u 
   64.90000n  -17.9269u  -22.4062u 
   64.95000n  -16.5377u  -19.1015u 
   65.00000n  -15.1486u  -15.7968u 
   65.05000n  -13.7595u  -12.4921u 
   65.10000n   -3.6347m   -1.9754m 
   65.15000n   16.3823m   19.8113m 
   65.20000n   19.9909m   22.9519m 
   65.25000n   17.0121m   18.9876m 
   65.30000n   12.7164m   13.8406m 
   65.35000n    8.9539m    9.5497m 
   65.40000n    6.2866m    6.5935m 
   65.45000n    4.5454m    4.6941m 
   65.50000n    3.7547m    3.8464m 
   65.55000n    3.2569m    3.3189m 
   65.60000n    3.0402m    3.1001m 
   65.65000n    2.8570m    2.9208m 
   65.70000n    2.7071m    2.7751m 
   65.75000n    2.5719m    2.6439m 
   65.80000n    2.4511m    2.5226m 
   65.85000n    2.3303m    2.4012m 
   65.90000n    2.2065m    2.2742m 
   65.95000n    2.0815m    2.1449m 
   66.00000n    1.9544m    2.0133m 
   66.05000n   11.6041m   11.4809m 
   66.10000n   -4.3786m   -4.6953m 
   66.15000n   -8.9317m   -9.2723m 
   66.20000n   -9.5065m   -9.7984m 
   66.25000n   -9.1454m   -9.3786m 
   66.30000n   -8.5641m   -8.7512m 
   66.35000n   -8.0072m   -8.1531m 
   66.40000n   -7.5880m   -7.7087m 
   66.45000n   -7.2488m   -7.3528m 
   66.50000n   -6.9097m   -6.9989m 
   66.55000n   -6.5618m   -6.6392m 
   66.60000n   -6.2054m   -6.2734m 
   66.65000n   -5.8382m   -5.8972m 
   66.70000n   -5.4867m   -5.5382m 
   66.75000n   -5.1465m   -5.1915m 
   66.80000n   -4.8092m   -4.8482m 
   66.85000n   -4.4732m   -4.5062m 
   66.90000n   -4.1386m   -4.1655m 
   66.95000n   -3.8090m   -3.8292m 
   67.00000n   -3.4862m   -3.4985m 
   67.05000n   -3.1779m   -3.1794m 
   67.10000n   -2.8936m   -2.8777m 
   67.15000n   -2.6457m   -2.6021m 
   67.20000n   -2.4507m   -2.3659m 
   67.25000n   -2.3025m   -2.1661m 
   67.30000n   -2.2051m   -2.0130m 
   67.35000n   -2.1214m   -1.8783m 
   67.40000n   -2.0175m   -1.7594m 
   67.45000n   -1.8984m   -1.6396m 
   67.50000n   -1.7576m   -1.5186m 
   67.55000n   -1.6009m   -1.3911m 
   67.60000n   -1.4458m   -1.2648m 
   67.65000n   -1.2959m   -1.1417m 
   67.70000n   -1.1731m   -1.0417m 
   67.75000n   -1.0718m -960.4590u 
   67.80000n -996.8717u -901.5489u 
   67.85000n -929.0530u -848.2461u 
   67.90000n -856.1987u -787.4858u 
   67.95000n -771.0275u -712.0431u 
   68.00000n -679.9086u -629.7013u 
   68.05000n -585.2462u -541.8676u 
   68.10000n -498.0996u -460.2459u 
   68.15000n -413.8284u -381.0007u 
   68.20000n -345.1523u -316.1094u 
   68.25000n -280.5007u -254.9222u 
   68.30000n -237.7909u -214.7243u 
   68.35000n -196.7193u -176.0934u 
   68.40000n -159.9529u -141.5527u 
   68.45000n -133.7594u -117.0568u 
   68.50000n -108.3946u  -93.3322u 
   68.55000n  -87.9065u  -74.1458u 
   68.60000n  -67.6536u  -55.1810u 
   68.65000n  -51.8686u  -40.4241u 
   68.70000n  -37.2450u  -26.7901u 
   68.75000n  -26.9117u  -17.3038u 
   68.80000n  -17.6190u   -8.8158u 
   68.85000n  -10.7185u   -2.6221u 
   68.90000n   -5.3602u    2.0985u 
   68.95000n -950.5968n    5.9129u 
   69.00000n    2.0671u    8.4018u 
   69.05000n    4.3328u   10.1792u 
   69.10000n    6.0815u   11.5166u 
   69.15000n    7.8302u   12.8539u 
   69.20000n    8.9494u   13.6163u 
   69.25000n    9.6666u   14.0115u 
   69.30000n    9.8680u   13.9130u 
   69.35000n    9.8909u   13.6436u 
   69.40000n    9.7336u   13.2017u 
   69.45000n    9.2580u   12.4478u 
   69.50000n    8.6655u   11.5879u 
   69.55000n    8.0185u   10.6870u 
   69.60000n    7.3419u    9.7758u 
   69.65000n    6.7404u    8.9625u 
   69.70000n    6.1511u    8.1786u 
   69.75000n    5.5547u    7.4101u 
   69.80000n    4.9732u    6.6883u 
   69.85000n    4.4283u    6.0203u 
   69.90000n    3.9066u    5.3863u 
   69.95000n    3.3436u    4.7308u 
   70.00000n    2.7793u    4.0745u 
   70.05000n   -6.8963m   -6.8499m 
   70.10000n   -1.2716m   -1.3306m 
   70.15000n   30.5798m   30.5439m 
   70.20000n   36.7771m   36.7876m 
   70.25000n   32.9133m   32.9377m 
   70.30000n   25.4883m   25.5051m 
   70.35000n   18.4479m   18.4554m 
   70.40000n   12.8478m   12.8495m 
   70.45000n    8.8214m    8.8209m 
   70.50000n    5.9024m    5.9014m 
   70.55000n    3.9708m    3.9700m 
   70.60000n    2.6513m    2.6508m 
   70.65000n    1.7555m    1.7551m 
   70.70000n    1.1461m    1.1459m 
   70.75000n  760.8495u  760.7020u 
   70.80000n  509.3366u  509.2195u 
   70.85000n  327.8678u  327.7685u 
   70.90000n  208.8075u  208.7196u 
   70.95000n  135.4337u  135.3509u 
   71.00000n   86.3288u   86.2491u 
   71.05000n   20.9282m   20.9279m 
   71.10000n    5.4773m    5.4779m 
   71.15000n -949.5706u -949.6805u 
   71.20000n   -4.0900m   -4.0898m 
   71.25000n   -5.7260m   -5.7255m 
   71.30000n   -6.2500m   -6.2491m 
   71.35000n   -6.7159m   -6.7146m 
   71.40000n   -6.8467m   -6.8454m 
   71.45000n   -6.9631m   -6.9617m 
   71.50000n   -7.0041m   -7.0026m 
   71.55000n   -7.0450m   -7.0435m 
   71.60000n   -7.0645m   -7.0630m 
   71.65000n   -7.0685m   -7.0669m 
   71.70000n   -7.0726m   -7.0709m 
   71.75000n   -7.0245m   -7.0229m 
   71.80000n   -6.9709m   -6.9692m 
   71.85000n   -6.9172m   -6.9156m 
   71.90000n   -6.7683m   -6.7668m 
   71.95000n   -6.5750m   -6.5738m 
   72.00000n   -6.3818m   -6.3807m 
   72.05000n   -6.1833m   -6.1825m 
   72.10000n   -5.8463m   -5.8457m 
   72.15000n   -5.5092m   -5.5090m 
   72.20000n   -5.1722m   -5.1722m 
   72.25000n   -4.8175m   -4.8177m 
   72.30000n   -4.4620m   -4.4624m 
   72.35000n   -4.1197m   -4.1202m 
   72.40000n   -3.7975m   -3.7982m 
   72.45000n   -3.4754m   -3.4761m 
   72.50000n   -3.1911m   -3.1919m 
   72.55000n   -2.9173m   -2.9182m 
   72.60000n   -2.6466m   -2.6476m 
   72.65000n   -2.4322m   -2.4331m 
   72.70000n   -2.2178m   -2.2187m 
   72.75000n   -2.0033m   -2.0043m 
   72.80000n   -1.7889m   -1.7899m 
   72.85000n   -1.6375m   -1.6384m 
   72.90000n   -1.4910m   -1.4919m 
   72.95000n   -1.3445m   -1.3453m 
   73.00000n   -1.1980m   -1.1988m 
   73.05000n   -1.0805m   -1.0813m 
   73.10000n -987.7935u -988.5539u 
   73.15000n -895.0847u -895.8046u 
   73.20000n -802.3758u -803.0554u 
   73.25000n -709.6669u -710.3062u 
   73.30000n -629.1973u -629.7980u 
   73.35000n -581.5601u -582.1272u 
   73.40000n -533.9229u -534.4563u 
   73.45000n -486.2858u -486.7855u 
   73.50000n -438.6486u -439.1146u 
   73.55000n -391.0114u -391.4437u 
   73.60000n -343.3743u -343.7729u 
   73.65000n -295.7371u -296.1020u 
   73.70000n -257.5727u -257.9146u 
   73.75000n -241.7494u -242.0932u 
   73.80000n -225.9260u -226.2717u 
   73.85000n -210.1027u -210.4503u 
   73.90000n -194.2793u -194.6289u 
   73.95000n -178.4559u -178.8075u 
   74.00000n -162.6326u -162.9861u 
   74.05000n -146.8092u -147.1646u 
   74.10000n -130.9859u -131.3432u 
   74.15000n -115.1625u -115.5218u 
   74.20000n  -99.3391u  -99.7004u 
   74.25000n  -83.5158u  -83.8790u 
   74.30000n  -67.6924u  -68.0575u 
   74.35000n  -51.8691u  -52.2361u 
   74.40000n  -53.1531u  -53.4783u 
   74.45000n  -54.4954u  -54.7786u 
   74.50000n  -55.8378u  -56.0789u 
   74.55000n  -57.1801u  -57.3791u 
   74.60000n  -58.5224u  -58.6794u 
   74.65000n  -59.8648u  -59.9797u 
   74.70000n  -61.2071u  -61.2800u 
   74.75000n  -62.5494u  -62.5803u 
   74.80000n  -63.8918u  -63.8806u 
   74.85000n  -65.2341u  -65.1809u 
   74.90000n  -66.5764u  -66.4812u 
   74.95000n  -67.9188u  -67.7815u 
   75.00000n  -69.2611u  -69.0818u 
   75.05000n  -70.6034u  -70.3821u 
   75.10000n   -1.9478m   -1.9400m 
   75.15000n   20.0710m   20.0970m 
   75.20000n   23.0818m   23.1076m 
   75.25000n   18.9852m   19.0073m 
   75.30000n   13.7686m   13.7686m 
   75.35000n    9.4662m    9.4348m 
   75.40000n    6.5082m    6.4430m 
   75.45000n    4.6122m    4.5243m 
   75.50000n    3.7943m    3.7075m 
   75.55000n    3.3093m    3.2318m 
   75.60000n    3.1254m    3.0683m 
   75.65000n    2.9506m    2.9191m 
   75.70000n    2.7992m    2.7876m 
   75.75000n    2.6586m    2.6641m 
   75.80000n    2.5283m    2.5421m 
   75.85000n    2.3981m    2.4201m 
   75.90000n    2.2653m    2.2909m 
   75.95000n    2.1315m    2.1588m 
   76.00000n    1.9957m    2.0240m 
   76.05000n   11.5615m   11.4435m 
   76.10000n   -4.5869m   -4.6917m 
   76.15000n   -9.2154m   -9.3165m 
   76.20000n   -9.7922m   -9.8533m 
   76.25000n   -9.4979m   -9.5106m 
   76.30000n   -8.9433m   -8.9142m 
   76.35000n   -8.4118m   -8.3447m 
   76.40000n   -8.0156m   -7.9223m 
   76.45000n   -7.6667m   -7.5585m 
   76.50000n   -7.3221m   -7.1998m 
   76.55000n   -6.9443m   -6.8174m 
   76.60000n   -6.5448m   -6.4195m 
   76.65000n   -6.1392m   -6.0189m 
   76.70000n   -5.7338m   -5.6198m 
   76.75000n   -5.3504m   -5.2476m 
   76.80000n   -4.9539m   -4.8655m 
   76.85000n   -4.5490m   -4.4782m 
   76.90000n   -4.1446m   -4.0924m 
   76.95000n   -3.7462m   -3.7123m 
   77.00000n   -3.3671m   -3.3490m 
   77.05000n   -3.0056m   -3.0012m 
   77.10000n   -2.6722m   -2.6789m 
   77.15000n   -2.3740m   -2.3895m 
   77.20000n   -2.1095m   -2.1320m 
   77.25000n   -1.8986m   -1.9260m 
   77.30000n   -1.7404m   -1.7713m 
   77.35000n   -1.6053m   -1.6391m 
   77.40000n   -1.4863m   -1.5223m 
   77.45000n   -1.3696m   -1.4074m 
   77.50000n   -1.2520m   -1.2912m 
   77.55000n   -1.1263m   -1.1658m 
   77.60000n -994.9576u   -1.0335m 
   77.65000n -862.4898u -899.1431u 
   77.70000n -732.2093u -766.1691u 
   77.75000n -613.4355u -644.1854u 
   77.80000n -506.8714u -534.3583u 
   77.85000n -415.4926u -439.8785u 
   77.90000n -338.0833u -359.6069u 
   77.95000n -272.3642u -291.2399u 
   78.00000n -218.5598u -235.0885u 
   78.05000n -173.2859u -187.7072u 
   78.10000n -133.2112u -145.6713u 
   78.15000n -100.5826u -111.2636u 
   78.20000n  -72.6717u  -81.7841u 
   78.25000n  -48.7154u  -56.4375u 
   78.30000n  -28.5570u  -35.0940u 
   78.35000n  -12.7336u  -18.3135u 
   78.40000n -991.6833n   -5.8018u 
   78.45000n    8.1038u    3.9724u 
   78.50000n   14.0447u   10.4745u 
   78.55000n   19.1421u   16.0988u 
   78.60000n   22.1182u   19.4964u 
   78.65000n   23.7744u   21.4940u 
   78.70000n   24.8724u   22.8944u 
   78.75000n   25.1312u   23.3950u 
   78.80000n   25.1909u   23.6790u 
   78.85000n   24.5215u   23.1695u 
   78.90000n   23.8521u   22.6601u 
   78.95000n   22.8900u   21.8211u 
   79.00000n   21.7585u   20.7913u 
   79.05000n   20.6270u   19.7616u 
   79.10000n   19.3959u   18.5996u 
   79.15000n   18.1522u   17.4210u 
   79.20000n   16.9085u   16.2424u 
   79.25000n   15.7633u   15.1403u 
   79.30000n   14.6327u   14.0496u 
   79.35000n   13.5021u   12.9589u 
   79.40000n   12.3715u   11.8681u 
   79.45000n   11.3975u   10.9248u 
   79.50000n   10.5902u   10.1384u 
   79.55000n    9.7830u    9.3520u 
   79.60000n    8.9758u    8.5657u 
   79.65000n    8.1686u    7.7793u 
   79.70000n    7.3614u    6.9929u 
   79.75000n    6.5542u    6.2066u 
   79.80000n    5.7470u    5.4202u 
   79.85000n    5.0578u    4.7480u 
   79.90000n    4.5406u    4.2422u 
   79.95000n    4.0235u    3.7364u 
   80.00000n    3.5063u    3.2306u 
y
   trise= failed                         measure parameter failed
   tfall= failed                         measure parameter failed
 vmax=   failed
 vmin=   failed
 trise=   failed
 tfall=   failed
 tplh=   failed
 tphl=   failed
 avg_delay=   0.        
 avgpower=  38.6317m  from=   0.             to=  80.0000n
 peakpwr= 376.2722m    at=   5.1000n
             from=   0.            to=  80.0000n

          ***** job concluded
 ******  
 *********************************************************

 ****** job statistics summary tnom=  25.000 temp=  70.000 ******
  
  
 ******  Machine Information  ******
 CPU:
 model name	: Intel(R) Xeon(R) CPU E5-4617 0 @ 2.90GHz
 cpu MHz	: 1200.000
  
 OS:
 Linux version 2.6.32-642.1.1.el6.x86_64 (mockbuild@x86-027.build.eng.bos.redhat.com) (gcc version 4.4.7 20120313 (Red Hat 4.4.7-17) (GCC) ) #1 SMP Fri May 6 14:54:05 EDT 2016


  ******  HSPICE Threads Information  ******

  Command Line Threads Count :     1
  Available CPU Count        :    12
  Actual Threads Count       :     1


  ****** Statistics of Ignored Elements ******
  Capacitors      :       1

  ******  Circuit Statistics  ******
  # nodes       =     630 # elements   =    1685
  # resistors   =       0 # capacitors =     306 # inductors   =       0
  # mutual_inds =       0 # vccs       =       0 # vcvs        =       0
  # cccs        =       0 # ccvs       =       0 # volt_srcs   =      23
  # curr_srcs   =       0 # diodes     =       0 # bjts        =       0
  # jfets       =       0 # mosfets    =    1356 # U elements  =       0
  # T elements  =       0 # W elements =       0 # B elements  =       0
  # S elements  =       0 # P elements =       0 # va device   =       0
  # vector_srcs =       0 # N elements =       0


  ******  Runtime Statistics (seconds)  ******

  analysis           time    # points   tot. iter  conv.iter
  op point           0.43           1         169
  dc sweep           1.35          51         269
  transient          6.16        1601        3984        1214 rev=        58
  readin             0.11
  errchk             0.03
  setup              0.02
  output             0.00


           peak memory used        219.30 megabytes
           total cpu time            8.27 seconds
           total elapsed time        8.39 seconds
           job started at     15:08:29 12/09/2016
           job ended   at     15:08:38 12/09/2016


 lic: Release hspice token(s) 
 lic: total license checkout elapse time:        0.25(s)
